<?xml version="1.0" encoding="UTF-8"?>

<!-- generated on 2022-06-30 12:44:46 by Eclipse SUMO netconvert Version 1.13.0
<configuration xmlns:xsi="http://www.w3.org/2001/XMLSchema-instance" xsi:noNamespaceSchemaLocation="http://sumo.dlr.de/xsd/netconvertConfiguration.xsd">

    <input>
        <opendrive-files value="curvyRoad.xodr"/>
    </input>

    <output>
        <output-file value="curvyRoad.net.xml"/>
    </output>

    <processing>
        <geometry.max-grade.fix value="false"/>
    </processing>

    <tls_building>
        <tls.left-green.time value="0"/>
    </tls_building>

    <junctions>
        <rectangular-lane-cut value="true"/>
    </junctions>

    <report>
        <aggregate-warnings value="5"/>
    </report>

</configuration>
-->

<net version="1.9" junctionCornerDetail="5" rectangularLaneCut="true" limitTurnSpeed="5.50" xmlns:xsi="http://www.w3.org/2001/XMLSchema-instance" xsi:noNamespaceSchemaLocation="http://sumo.dlr.de/xsd/net_file.xsd">

    <location netOffset="0.05,-1.26" convBoundary="0.00,0.00,400.64,190.06" origBoundary="-0.05,1.26,400.59,191.32" projParameter="!"/>

    <type id="bidirectional" priority="1" speed="1.39" disallow="pedestrian tram rail_urban rail rail_electric rail_fast ship" width="3.65"/>
    <type id="border" priority="0" speed="1.39" disallow="all" discard="1" width="0.10"/>
    <type id="driving" priority="1" speed="13.89" disallow="pedestrian tram rail_urban rail rail_electric rail_fast ship" width="3.65"/>
    <type id="entry" priority="1" speed="22.22" disallow="pedestrian tram rail_urban rail rail_electric rail_fast ship" width="3.65"/>
    <type id="exit" priority="1" speed="22.22" disallow="pedestrian tram rail_urban rail rail_electric rail_fast ship" width="3.65"/>
    <type id="median" priority="0" speed="1.39" disallow="all" discard="1" width="0.10"/>
    <type id="mwyEntry" priority="1" speed="22.22" allow="private emergency authority army vip passenger hov taxi bus coach delivery truck trailer motorcycle evehicle custom1 custom2" width="3.65"/>
    <type id="mwyExit" priority="1" speed="22.22" allow="private emergency authority army vip passenger hov taxi bus coach delivery truck trailer motorcycle evehicle custom1 custom2" width="3.65"/>
    <type id="none" priority="0" speed="1.39" disallow="all" discard="1" width="1.00"/>
    <type id="offRamp" priority="1" speed="22.22" allow="private emergency authority army vip passenger hov taxi bus coach delivery truck trailer motorcycle evehicle custom1 custom2" width="3.65"/>
    <type id="onRamp" priority="1" speed="22.22" allow="private emergency authority army vip passenger hov taxi bus coach delivery truck trailer motorcycle evehicle custom1 custom2" width="3.65"/>
    <type id="parking" priority="1" speed="1.39" disallow="pedestrian tram rail_urban rail rail_electric rail_fast ship" width="2.50"/>
    <type id="rail" priority="3" speed="33.33" allow="rail_urban rail rail_electric rail_fast" width="3.65"/>
    <type id="restricted" priority="0" speed="13.89" disallow="all" width="3.65"/>
    <type id="roadWorks" priority="0" speed="1.39" allow="authority" width="3.65"/>
    <type id="shoulder" priority="0" speed="1.39" disallow="all" discard="1" width="1.00"/>
    <type id="special1" priority="1" speed="22.22" allow="custom1" discard="1" width="3.65"/>
    <type id="special2" priority="1" speed="22.22" allow="custom2" discard="1" width="3.65"/>
    <type id="special3" priority="1" speed="22.22" allow="custom1 custom2" discard="1" width="3.65"/>
    <type id="stop" priority="1" speed="13.89" disallow="pedestrian tram rail_urban rail rail_electric rail_fast ship" width="3.65"/>
    <type id="tram" priority="2" speed="13.89" allow="tram" width="3.65"/>

    <edge id=":0.begin_0" function="internal">
        <lane id=":0.begin_0_0" index="0" disallow="pedestrian tram rail_urban rail rail_electric rail_fast ship" speed="3.82" length="5.11" width="3.50" shape="0.00,1.75 -1.31,0.88 -1.75,0.00 -1.31,-0.87 -0.00,-1.75"/>
    </edge>
    <edge id=":0.end_0" function="internal">
        <lane id=":0.end_0_0" index="0" disallow="pedestrian tram rail_urban rail rail_electric rail_fast ship" speed="3.82" length="5.11" width="3.50" shape="401.84,188.79 402.19,190.33 401.91,191.26 400.99,191.60 399.44,191.33"/>
    </edge>

    <edge id="-0" from="0.begin" to="0.end" priority="1" type="driving" shape="0.00,0.00 2.00,0.00 4.00,0.01 6.00,0.02 8.00,0.05 10.00,0.08 12.00,0.12 14.00,0.16 16.00,0.22 18.00,0.28 20.00,0.35 21.99,0.43 23.99,0.52 25.99,0.62 27.99,0.72 29.98,0.83 31.98,0.95 33.98,1.08 35.97,1.21 37.97,1.36 39.96,1.51 41.95,1.67 43.95,1.83 45.94,2.01 47.93,2.19 49.92,2.38 51.91,2.58 53.90,2.79 55.89,3.01 57.88,3.23 59.86,3.46 61.85,3.70 63.83,3.95 65.82,4.20 67.80,4.46 69.78,4.73 71.76,5.01 73.74,5.30 75.72,5.60 77.70,5.90 79.67,6.21 81.65,6.53 83.62,6.85 85.59,7.19 87.56,7.53 89.53,7.88 91.50,8.24 93.47,8.60 95.43,8.98 97.39,9.36 99.36,9.75 101.32,10.15 103.27,10.55 105.23,10.96 107.19,11.39 109.14,11.81 111.09,12.25 113.04,12.69 114.99,13.15 116.94,13.61 118.88,14.07 120.82,14.55 122.76,15.03 124.70,15.53 126.64,16.02 128.57,16.53 130.51,17.05 132.44,17.57 134.37,18.10 136.29,18.63 138.22,19.18 140.14,19.73 142.06,20.29 143.98,20.86 145.89,21.44 147.80,22.02 149.71,22.61 151.62,23.21 153.53,23.82 155.43,24.43 157.33,25.06 159.23,25.69 161.13,26.32 163.02,26.97 164.91,27.62 166.80,28.28 168.68,28.95 170.57,29.62 172.45,30.31 174.32,31.00 176.20,31.69 178.07,32.40 179.94,33.11 181.80,33.83 183.67,34.56 185.53,35.29 187.38,36.04 189.24,36.79 191.09,37.54 192.94,38.31 194.78,39.08 196.62,39.86 198.46,40.65 200.30,41.44 202.13,42.24 203.96,43.05 205.79,43.87 207.61,44.69 209.43,45.52 211.24,46.36 213.06,47.21 214.86,48.06 216.67,48.92 218.47,49.79 220.27,50.66 222.07,51.54 223.86,52.43 225.65,53.33 227.43,54.23 229.21,55.14 230.99,56.06 232.76,56.98 234.53,57.92 236.30,58.85 238.06,59.80 239.82,60.75 241.57,61.71 243.32,62.68 245.07,63.65 246.81,64.63 248.55,65.62 250.29,66.62 252.02,67.62 253.74,68.63 255.47,69.64 257.19,70.67 258.90,71.70 260.61,72.73 262.32,73.78 264.02,74.83 265.72,75.88 267.41,76.95 269.10,78.02 270.79,79.09 272.47,80.18 274.14,81.27 275.82,82.37 277.48,83.47 279.15,84.58 280.81,85.70 282.46,86.82 284.11,87.95 285.75,89.09 287.40,90.23 289.03,91.38 290.66,92.54 292.29,93.70 293.91,94.87 295.53,96.05 297.14,97.23 298.75,98.42 300.35,99.62 301.95,100.82 303.54,102.03 305.13,103.24 306.72,104.47 308.30,105.69 309.87,106.93 311.44,108.17 313.00,109.42 314.56,110.67 316.12,111.93 317.66,113.19 319.21,114.46 320.75,115.74 322.28,117.03 323.81,118.32 325.33,119.61 326.85,120.91 328.36,122.22 329.87,123.54 331.37,124.86 332.87,126.18 334.36,127.52 335.85,128.85 337.33,130.20 338.80,131.55 340.27,132.90 341.74,134.27 343.20,135.63 344.40,136.77 400.64,190.06">
        <lane id="-0_0" index="0" disallow="pedestrian tram rail_urban rail rail_electric rail_fast ship" speed="17.88" length="458.46" width="3.50" shape="-0.00,-1.75 2.00,-1.75 4.01,-1.74 6.02,-1.73 8.02,-1.70 10.03,-1.67 12.04,-1.63 14.04,-1.59 16.05,-1.53 18.06,-1.47 20.06,-1.40 22.07,-1.32 24.07,-1.23 26.08,-1.13 28.08,-1.03 30.08,-0.92 32.09,-0.80 34.09,-0.67 36.09,-0.53 38.10,-0.39 40.10,-0.24 42.10,-0.08 44.10,0.09 46.10,0.27 48.10,0.45 50.09,0.64 52.09,0.84 54.09,1.05 56.08,1.27 58.08,1.49 60.07,1.72 62.06,1.96 64.05,2.21 66.04,2.47 68.03,2.73 70.02,3.00 72.01,3.28 74.00,3.57 75.98,3.86 77.97,4.17 79.95,4.48 81.93,4.80 83.91,5.13 85.89,5.46 87.87,5.81 89.84,6.16 91.82,6.52 93.79,6.88 95.76,7.26 97.73,7.64 99.70,8.03 101.67,8.43 103.63,8.84 105.60,9.25 107.56,9.68 109.52,10.11 111.48,10.54 113.43,10.99 115.39,11.44 117.34,11.90 119.29,12.37 121.24,12.85 123.19,13.34 125.14,13.83 127.08,14.33 129.02,14.84 130.96,15.35 132.90,15.88 134.83,16.41 136.77,16.95 138.70,17.50 140.63,18.05 142.55,18.61 144.48,19.19 146.40,19.76 148.32,20.35 150.24,20.94 152.15,21.54 154.06,22.15 155.97,22.77 157.88,23.39 159.79,24.03 161.69,24.66 163.59,25.31 165.48,25.97 167.38,26.63 169.27,27.30 171.16,27.98 173.05,28.66 174.93,29.35 176.81,30.05 178.69,30.76 180.57,31.48 182.44,32.20 184.31,32.93 186.17,33.67 188.04,34.41 189.90,35.17 191.76,35.93 193.61,36.69 195.46,37.47 197.31,38.25 199.15,39.04 201.00,39.84 202.84,40.64 204.67,41.45 206.50,42.27 208.33,43.10 210.16,43.93 211.98,44.77 213.80,45.62 215.61,46.48 217.43,47.34 219.23,48.21 221.04,49.09 222.84,49.97 224.64,50.87 226.43,51.77 228.22,52.67 230.01,53.58 231.79,54.51 233.57,55.43 235.35,56.37 237.12,57.31 238.89,58.26 240.65,59.22 242.42,60.18 244.17,61.15 245.93,62.13 247.67,63.11 249.42,64.10 251.16,65.10 252.90,66.11 254.63,67.12 256.36,68.14 258.08,69.16 259.80,70.20 261.52,71.24 263.23,72.28 264.94,73.34 266.65,74.40 268.35,75.47 270.04,76.54 271.73,77.62 273.42,78.71 275.10,79.80 276.78,80.90 278.45,82.01 280.12,83.13 281.79,84.25 283.45,85.38 285.10,86.51 286.75,87.65 288.40,88.80 290.04,89.95 291.68,91.12 293.31,92.28 294.94,93.46 296.56,94.64 298.18,95.82 299.79,97.02 301.40,98.22 303.01,99.42 304.60,100.64 306.20,101.86 307.79,103.08 309.37,104.31 310.95,105.55 312.53,106.80 314.10,108.05 315.66,109.31 317.22,110.57 318.77,111.84 320.32,113.12 321.87,114.40 323.41,115.69 324.94,116.98 326.47,118.28 327.99,119.59 329.51,120.90 331.02,122.22 332.53,123.54 334.03,124.88 335.53,126.21 337.02,127.56 338.51,128.91 339.99,130.26 341.46,131.62 342.93,132.99 344.40,134.36 345.60,135.50 401.84,188.79" type="driving"/>
    </edge>
    <edge id="0" from="0.end" to="0.begin" priority="1" type="driving" shape="400.64,190.06 344.40,136.77 343.20,135.63 341.74,134.27 340.27,132.90 338.80,131.55 337.33,130.20 335.85,128.85 334.36,127.52 332.87,126.18 331.37,124.86 329.87,123.54 328.36,122.22 326.85,120.91 325.33,119.61 323.81,118.32 322.28,117.03 320.75,115.74 319.21,114.46 317.66,113.19 316.12,111.93 314.56,110.67 313.00,109.42 311.44,108.17 309.87,106.93 308.30,105.69 306.72,104.47 305.13,103.24 303.54,102.03 301.95,100.82 300.35,99.62 298.75,98.42 297.14,97.23 295.53,96.05 293.91,94.87 292.29,93.70 290.66,92.54 289.03,91.38 287.40,90.23 285.75,89.09 284.11,87.95 282.46,86.82 280.81,85.70 279.15,84.58 277.48,83.47 275.82,82.37 274.14,81.27 272.47,80.18 270.79,79.09 269.10,78.02 267.41,76.95 265.72,75.88 264.02,74.83 262.32,73.78 260.61,72.73 258.90,71.70 257.19,70.67 255.47,69.64 253.74,68.63 252.02,67.62 250.29,66.62 248.55,65.62 246.81,64.63 245.07,63.65 243.32,62.68 241.57,61.71 239.82,60.75 238.06,59.80 236.30,58.85 234.53,57.92 232.76,56.98 230.99,56.06 229.21,55.14 227.43,54.23 225.65,53.33 223.86,52.43 222.07,51.54 220.27,50.66 218.47,49.79 216.67,48.92 214.86,48.06 213.06,47.21 211.24,46.36 209.43,45.52 207.61,44.69 205.79,43.87 203.96,43.05 202.13,42.24 200.30,41.44 198.46,40.65 196.62,39.86 194.78,39.08 192.94,38.31 191.09,37.54 189.24,36.79 187.38,36.04 185.53,35.29 183.67,34.56 181.80,33.83 179.94,33.11 178.07,32.40 176.20,31.69 174.32,31.00 172.45,30.31 170.57,29.62 168.68,28.95 166.80,28.28 164.91,27.62 163.02,26.97 161.13,26.32 159.23,25.69 157.33,25.06 155.43,24.43 153.53,23.82 151.62,23.21 149.71,22.61 147.80,22.02 145.89,21.44 143.98,20.86 142.06,20.29 140.14,19.73 138.22,19.18 136.29,18.63 134.37,18.10 132.44,17.57 130.51,17.05 128.57,16.53 126.64,16.02 124.70,15.53 122.76,15.03 120.82,14.55 118.88,14.07 116.94,13.61 114.99,13.15 113.04,12.69 111.09,12.25 109.14,11.81 107.19,11.39 105.23,10.96 103.27,10.55 101.32,10.15 99.36,9.75 97.39,9.36 95.43,8.98 93.47,8.60 91.50,8.24 89.53,7.88 87.56,7.53 85.59,7.19 83.62,6.85 81.65,6.53 79.67,6.21 77.70,5.90 75.72,5.60 73.74,5.30 71.76,5.01 69.78,4.73 67.80,4.46 65.82,4.20 63.83,3.95 61.85,3.70 59.86,3.46 57.88,3.23 55.89,3.01 53.90,2.79 51.91,2.58 49.92,2.38 47.93,2.19 45.94,2.01 43.95,1.83 41.95,1.67 39.96,1.51 37.97,1.36 35.97,1.21 33.98,1.08 31.98,0.95 29.98,0.83 27.99,0.72 25.99,0.62 23.99,0.52 21.99,0.43 20.00,0.35 18.00,0.28 16.00,0.22 14.00,0.16 12.00,0.12 10.00,0.08 8.00,0.05 6.00,0.02 4.00,0.01 2.00,0.00 0.00,0.00">
        <lane id="0_0" index="0" disallow="pedestrian tram rail_urban rail rail_electric rail_fast ship" speed="17.88" length="455.80" width="3.50" shape="399.44,191.33 343.20,138.04 342.00,136.91 340.54,135.55 339.08,134.19 337.62,132.84 336.15,131.49 334.67,130.15 333.19,128.82 331.71,127.49 330.21,126.17 328.72,124.85 327.21,123.54 325.71,122.24 324.19,120.94 322.68,119.65 321.15,118.37 319.63,117.09 318.09,115.81 316.55,114.55 315.01,113.28 313.46,112.03 311.91,110.78 310.35,109.54 308.79,108.30 307.22,107.07 305.65,105.85 304.07,104.63 302.48,103.42 300.90,102.22 299.30,101.02 297.71,99.83 296.10,98.64 294.50,97.46 292.88,96.29 291.27,95.13 289.65,93.97 288.02,92.81 286.39,91.67 284.76,90.53 283.12,89.39 281.47,88.27 279.82,87.15 278.17,86.03 276.51,84.93 274.85,83.83 273.19,82.73 271.52,81.65 269.84,80.57 268.16,79.49 266.48,78.43 264.79,77.37 263.10,76.31 261.40,75.27 259.70,74.23 258.00,73.19 256.29,72.17 254.58,71.15 252.86,70.14 251.14,69.13 249.41,68.13 247.68,67.14 245.95,66.16 244.21,65.18 242.47,64.21 240.73,63.25 238.98,62.29 237.23,61.34 235.47,60.40 233.71,59.46 231.95,58.53 230.18,57.61 228.41,56.70 226.64,55.79 224.86,54.89 223.08,54.00 221.29,53.11 219.50,52.23 217.71,51.36 215.91,50.50 214.12,49.64 212.31,48.79 210.51,47.95 208.70,47.11 206.88,46.29 205.07,45.46 203.25,44.65 201.43,43.84 199.60,43.05 197.77,42.25 195.94,41.47 194.10,40.69 192.26,39.92 190.42,39.16 188.58,38.41 186.73,37.66 184.88,36.92 183.03,36.19 181.17,35.46 179.31,34.74 177.45,34.03 175.58,33.33 173.72,32.64 171.85,31.95 169.97,31.27 168.10,30.60 166.22,29.93 164.34,29.27 162.45,28.62 160.57,27.98 158.68,27.35 156.79,26.72 154.89,26.10 152.99,25.49 151.10,24.88 149.19,24.28 147.29,23.69 145.38,23.11 143.48,22.54 141.56,21.97 139.65,21.41 137.74,20.86 135.82,20.32 133.90,19.78 131.98,19.26 130.05,18.74 128.13,18.22 126.20,17.72 124.27,17.22 122.34,16.73 120.40,16.25 118.47,15.78 116.53,15.31 114.59,14.85 112.65,14.40 110.71,13.96 108.76,13.52 106.81,13.10 104.87,12.68 102.92,12.26 100.96,11.86 99.01,11.46 97.06,11.08 95.10,10.70 93.14,10.32 91.18,9.96 89.22,9.60 87.26,9.25 85.30,8.91 83.33,8.58 81.37,8.25 79.40,7.94 77.43,7.63 75.46,7.33 73.49,7.03 71.52,6.75 69.54,6.47 67.57,6.20 65.59,5.94 63.61,5.68 61.64,5.44 59.66,5.20 57.68,4.97 55.70,4.74 53.72,4.53 51.73,4.32 49.75,4.13 47.77,3.93 45.78,3.75 43.80,3.58 41.81,3.41 39.82,3.25 37.84,3.10 35.85,2.96 33.86,2.82 31.87,2.70 29.88,2.58 27.89,2.47 25.90,2.36 23.91,2.27 21.92,2.18 19.93,2.10 17.94,2.03 15.95,1.97 13.95,1.91 11.96,1.87 9.97,1.83 7.98,1.80 5.98,1.77 3.99,1.76 2.00,1.75 0.00,1.75" type="driving"/>
    </edge>

    <junction id="0.begin" type="priority" x="0.00" y="0.00" incLanes="0_0" intLanes=":0.begin_0_0" shape="-0.00,0.00 0.00,3.50 0.00,0.00">
        <request index="0" response="0" foes="0" cont="0"/>
    </junction>
    <junction id="0.end" type="priority" x="400.64" y="190.06" incLanes="-0_0" intLanes=":0.end_0_0" shape="400.64,190.06 403.05,187.52 400.64,190.06">
        <request index="0" response="0" foes="0" cont="0"/>
    </junction>

    <connection from="-0" to="0" fromLane="0" toLane="0" via=":0.end_0_0" dir="t" state="M"/>
    <connection from="0" to="-0" fromLane="0" toLane="0" via=":0.begin_0_0" dir="t" state="M"/>

    <connection from=":0.begin_0" to="-0" fromLane="0" toLane="0" dir="t" state="M"/>
    <connection from=":0.end_0" to="0" fromLane="0" toLane="0" dir="t" state="M"/>

</net>
