<?xml version="1.0" encoding="UTF-8"?>

<!-- generated on 2022-06-30 17:20:14 by Eclipse SUMO netedit Version 1.13.0
-->

<routes xmlns:xsi="http://www.w3.org/2001/XMLSchema-instance" xsi:noNamespaceSchemaLocation="http://sumo.dlr.de/xsd/routes_file.xsd">
    <!-- Routes -->
    <route id="r_0" edges="-0"/>
    <!-- Vehicles, persons and containers (sorted by depart) -->
    <trip id="veh_0" depart="0.00" from="-0" to="-0"/>
</routes>
