<?xml version="1.0" encoding="UTF-8"?>

<!-- generated on 2022-06-30 22:34:11 by Eclipse SUMO netconvert Version 1.13.0
<configuration xmlns:xsi="http://www.w3.org/2001/XMLSchema-instance" xsi:noNamespaceSchemaLocation="http://sumo.dlr.de/xsd/netconvertConfiguration.xsd">

    <input>
        <opendrive-files value="curvyRoad_irregular.xodr"/>
    </input>

    <output>
        <output-file value="curvyRoad_irregular.net.xml"/>
    </output>

    <processing>
        <geometry.max-grade.fix value="false"/>
    </processing>

    <tls_building>
        <tls.left-green.time value="0"/>
    </tls_building>

    <junctions>
        <rectangular-lane-cut value="true"/>
    </junctions>

    <report>
        <aggregate-warnings value="5"/>
    </report>

</configuration>
-->

<net version="1.9" junctionCornerDetail="5" rectangularLaneCut="true" limitTurnSpeed="5.50" xmlns:xsi="http://www.w3.org/2001/XMLSchema-instance" xsi:noNamespaceSchemaLocation="http://sumo.dlr.de/xsd/net_file.xsd">

    <location netOffset="1.24,-0.91" convBoundary="0.00,0.00,366.93,302.49" origBoundary="-21.29,-50.00,365.69,303.40" projParameter="!"/>

    <type id="bidirectional" priority="1" speed="1.39" disallow="pedestrian tram rail_urban rail rail_electric rail_fast ship" width="3.65"/>
    <type id="border" priority="0" speed="1.39" disallow="all" discard="1" width="0.10"/>
    <type id="driving" priority="1" speed="13.89" disallow="pedestrian tram rail_urban rail rail_electric rail_fast ship" width="3.65"/>
    <type id="entry" priority="1" speed="22.22" disallow="pedestrian tram rail_urban rail rail_electric rail_fast ship" width="3.65"/>
    <type id="exit" priority="1" speed="22.22" disallow="pedestrian tram rail_urban rail rail_electric rail_fast ship" width="3.65"/>
    <type id="median" priority="0" speed="1.39" disallow="all" discard="1" width="0.10"/>
    <type id="mwyEntry" priority="1" speed="22.22" allow="private emergency authority army vip passenger hov taxi bus coach delivery truck trailer motorcycle evehicle custom1 custom2" width="3.65"/>
    <type id="mwyExit" priority="1" speed="22.22" allow="private emergency authority army vip passenger hov taxi bus coach delivery truck trailer motorcycle evehicle custom1 custom2" width="3.65"/>
    <type id="none" priority="0" speed="1.39" disallow="all" discard="1" width="1.00"/>
    <type id="offRamp" priority="1" speed="22.22" allow="private emergency authority army vip passenger hov taxi bus coach delivery truck trailer motorcycle evehicle custom1 custom2" width="3.65"/>
    <type id="onRamp" priority="1" speed="22.22" allow="private emergency authority army vip passenger hov taxi bus coach delivery truck trailer motorcycle evehicle custom1 custom2" width="3.65"/>
    <type id="parking" priority="1" speed="1.39" disallow="pedestrian tram rail_urban rail rail_electric rail_fast ship" width="2.50"/>
    <type id="rail" priority="3" speed="33.33" allow="rail_urban rail rail_electric rail_fast" width="3.65"/>
    <type id="restricted" priority="0" speed="13.89" disallow="all" width="3.65"/>
    <type id="roadWorks" priority="0" speed="1.39" allow="authority" width="3.65"/>
    <type id="shoulder" priority="0" speed="1.39" disallow="all" discard="1" width="1.00"/>
    <type id="special1" priority="1" speed="22.22" allow="custom1" discard="1" width="3.65"/>
    <type id="special2" priority="1" speed="22.22" allow="custom2" discard="1" width="3.65"/>
    <type id="special3" priority="1" speed="22.22" allow="custom1 custom2" discard="1" width="3.65"/>
    <type id="stop" priority="1" speed="13.89" disallow="pedestrian tram rail_urban rail rail_electric rail_fast ship" width="3.65"/>
    <type id="tram" priority="2" speed="13.89" allow="tram" width="3.65"/>

    <edge id=":0.begin_0" function="internal">
        <lane id=":0.begin_0_0" index="0" disallow="pedestrian tram rail_urban rail rail_electric rail_fast ship" speed="3.82" length="5.11" width="3.50" shape="0.01,2.09 -1.31,1.23 -1.75,0.35 -1.32,-0.52 -0.01,-1.41"/>
    </edge>
    <edge id=":0.end_0" function="internal">
        <lane id=":0.end_0_0" index="0" disallow="pedestrian tram rail_urban rail rail_electric rail_fast ship" speed="3.82" length="5.11" width="3.50" shape="2.76,199.50 1.50,198.55 1.12,197.65 1.60,196.80 2.96,196.00"/>
    </edge>

    <edge id="-0" from="0.begin" to="0.end" priority="1" type="driving" shape="0.00,0.34 45.51,0.01 47.51,0.00 49.51,0.01 51.51,0.03 53.51,0.07 55.51,0.12 57.51,0.18 59.51,0.26 61.50,0.36 63.50,0.47 65.50,0.59 67.49,0.73 69.49,0.89 71.48,1.05 73.47,1.24 75.46,1.43 77.45,1.65 79.44,1.87 81.42,2.11 83.40,2.37 85.39,2.64 87.37,2.93 89.34,3.22 91.32,3.54 93.29,3.87 95.26,4.21 97.23,4.57 99.19,4.94 101.16,5.32 103.12,5.72 105.07,6.14 107.03,6.57 108.98,7.01 110.92,7.47 112.87,7.94 114.81,8.43 116.74,8.93 118.68,9.44 120.61,9.97 122.53,10.51 124.45,11.07 126.37,11.64 128.28,12.23 130.19,12.82 132.09,13.44 133.99,14.06 135.89,14.71 137.78,15.36 139.66,16.03 141.54,16.71 143.42,17.41 145.29,18.12 147.15,18.84 149.01,19.58 149.23,19.67 151.06,20.48 152.82,21.43 154.51,22.50 156.11,23.70 157.62,25.01 159.03,26.43 160.33,27.95 161.51,29.56 162.57,31.26 163.50,33.03 164.30,34.86 164.96,36.75 165.48,38.68 165.85,40.64 166.08,42.63 166.16,44.63 166.09,46.63 165.87,48.61 165.51,50.58 165.00,52.51 164.35,54.41 163.57,56.24 162.64,58.02 161.59,59.72 160.42,61.34 159.13,62.87 157.73,64.29 156.23,65.61 154.63,66.82 153.23,67.74 149.53,69.99 147.85,71.07 146.21,72.23 144.63,73.45 143.11,74.75 141.65,76.11 140.25,77.54 138.92,79.03 137.65,80.58 136.46,82.19 135.34,83.84 134.29,85.55 133.33,87.30 132.44,89.09 131.63,90.92 130.91,92.79 130.27,94.68 129.72,96.60 129.26,98.55 128.88,100.51 128.60,102.49 128.40,104.48 128.29,106.48 128.28,108.48 128.35,110.48 128.51,112.47 128.77,114.45 129.11,116.43 129.54,118.38 130.06,120.31 130.66,122.22 131.35,124.09 132.13,125.94 132.98,127.74 133.92,129.51 134.93,131.23 136.03,132.91 137.19,134.53 138.43,136.10 139.74,137.62 141.11,139.07 142.21,140.13 150.11,147.58 151.58,148.93 153.09,150.25 154.64,151.52 156.22,152.75 157.83,153.93 159.47,155.07 161.14,156.17 162.84,157.22 164.57,158.23 166.32,159.19 168.10,160.10 169.91,160.97 171.73,161.78 173.58,162.55 175.45,163.26 177.33,163.93 179.24,164.54 181.16,165.11 183.09,165.62 185.04,166.08 186.99,166.48 188.96,166.84 190.94,167.14 192.92,167.38 194.91,167.58 196.91,167.72 198.91,167.81 200.91,167.84 202.91,167.82 204.91,167.74 206.90,167.62 208.89,167.43 210.88,167.20 212.86,166.91 214.83,166.57 216.79,166.17 218.74,165.73 220.68,165.23 222.60,164.68 224.51,164.08 226.40,163.42 228.27,162.72 230.12,161.96 231.95,161.16 233.76,160.31 235.55,159.41 237.31,158.46 239.04,157.46 240.75,156.42 242.43,155.33 244.08,154.20 245.69,153.03 247.28,151.81 248.83,150.55 250.35,149.24 251.29,148.40 252.18,147.58 253.64,146.21 255.06,144.80 256.43,143.34 257.76,141.85 259.04,140.31 260.27,138.74 261.46,137.13 262.60,135.48 263.68,133.80 264.72,132.09 265.70,130.35 266.64,128.58 267.51,126.79 268.34,124.96 269.10,123.12 269.81,121.25 270.47,119.36 271.07,117.45 271.61,115.52 272.09,113.58 272.51,111.63 272.87,109.66 273.18,107.68 273.42,105.70 273.61,103.71 273.73,101.71 273.80,99.71 273.80,97.71 273.74,95.71 273.63,93.72 273.45,91.73 273.21,89.74 272.92,87.76 272.56,85.79 272.14,83.84 271.67,81.90 271.14,79.97 270.55,78.06 269.90,76.16 269.19,74.29 268.43,72.44 267.62,70.62 266.75,68.82 265.82,67.04 264.85,65.30 263.82,63.58 262.73,61.90 261.60,60.25 260.42,58.64 259.19,57.06 257.92,55.52 256.60,54.02 255.23,52.56 253.86,51.17 252.12,49.48 250.82,47.96 249.82,46.23 249.14,44.35 248.82,42.38 248.85,40.38 249.24,38.42 249.97,36.57 251.03,34.87 252.37,33.39 253.95,32.18 255.73,31.27 257.65,30.69 259.63,30.47 261.62,30.61 263.56,31.10 264.90,31.68 339.39,69.65 341.16,70.59 342.88,71.60 344.57,72.68 346.20,73.83 347.80,75.04 349.34,76.31 350.83,77.64 352.27,79.03 353.65,80.48 354.97,81.98 356.23,83.53 357.43,85.13 358.57,86.78 359.64,88.47 360.64,90.20 361.57,91.97 362.43,93.77 363.22,95.61 363.94,97.48 364.58,99.37 365.14,101.29 365.63,103.23 366.05,105.19 366.38,107.16 366.63,109.14 366.81,111.13 366.91,113.13 366.93,115.13 366.87,117.13 366.72,119.13 366.51,121.11 366.21,123.09 365.83,125.06 365.38,127.00 364.85,128.93 364.24,130.84 363.56,132.72 362.80,134.57 361.98,136.39 361.08,138.18 360.11,139.92 359.07,141.63 357.96,143.30 356.79,144.92 355.56,146.49 354.26,148.02 352.91,149.49 352.15,150.26 350.76,151.69 349.41,153.16 348.10,154.68 346.83,156.22 345.61,157.81 344.44,159.43 343.31,161.08 342.23,162.76 341.20,164.47 340.21,166.22 339.28,167.98 338.40,169.78 337.57,171.60 336.79,173.44 336.07,175.31 335.39,177.19 334.78,179.09 334.21,181.01 333.71,182.95 333.26,184.89 332.86,186.85 332.52,188.82 332.24,190.80 332.01,192.79 331.84,194.78 331.73,196.78 331.67,198.78 331.67,200.78 331.73,202.78 331.85,204.78 332.02,206.77 332.25,208.75 332.54,210.73 332.88,212.70 333.28,214.66 333.73,216.61 334.25,218.55 334.81,220.46 335.43,222.36 336.11,224.25 336.83,226.11 337.61,227.95 338.45,229.77 339.33,231.56 340.27,233.33 341.25,235.07 342.29,236.78 343.37,238.46 344.50,240.11 345.68,241.73 346.91,243.31 348.17,244.86 349.49,246.37 350.84,247.84 351.77,248.80 352.51,249.56 353.87,251.03 355.13,252.58 356.28,254.22 357.32,255.93 358.24,257.70 359.05,259.53 359.73,261.41 360.29,263.33 360.73,265.28 361.03,267.26 361.20,269.25 361.24,271.25 361.15,273.25 360.93,275.23 360.57,277.20 360.09,279.14 359.48,281.05 358.75,282.91 357.90,284.72 356.93,286.46 355.84,288.14 354.65,289.75 353.36,291.27 351.97,292.71 350.48,294.05 348.91,295.29 347.27,296.42 345.55,297.45 343.77,298.35 341.93,299.14 340.04,299.81 338.12,300.35 336.16,300.76 334.18,301.05 332.19,301.20 331.50,301.22 271.05,302.46 269.05,302.49 267.05,302.49 265.05,302.47 263.05,302.43 261.05,302.36 259.05,302.27 257.05,302.15 255.06,302.01 253.07,301.85 251.07,301.66 249.09,301.44 247.10,301.20 245.12,300.94 243.14,300.66 241.16,300.35 239.19,300.01 237.22,299.65 235.26,299.27 233.30,298.86 231.35,298.43 229.40,297.98 227.46,297.50 225.52,297.00 223.59,296.48 221.67,295.93 219.75,295.36 217.84,294.77 215.94,294.15 214.04,293.51 212.16,292.85 210.28,292.16 208.41,291.45 206.55,290.72 204.70,289.96 202.85,289.19 201.02,288.39 199.20,287.57 197.38,286.72 195.58,285.86 193.79,284.97 192.01,284.06 190.24,283.13 188.48,282.18 186.73,281.20 185.00,280.21 183.27,279.19 181.56,278.16 179.86,277.10 178.18,276.02 176.51,274.92 174.85,273.81 173.21,272.67 171.58,271.51 169.96,270.33 168.36,269.13 166.77,267.92 165.20,266.68 163.64,265.42 162.10,264.15 160.57,262.86 159.06,261.54 157.57,260.22 156.09,258.87 154.63,257.50 153.19,256.12 151.76,254.72 150.66,253.62 149.25,252.21 147.82,250.81 146.38,249.42 144.92,248.06 143.45,246.70 141.96,245.37 140.45,244.05 138.94,242.74 137.41,241.46 135.86,240.19 134.30,238.94 132.73,237.70 131.14,236.48 129.55,235.28 127.93,234.09 126.31,232.93 124.67,231.78 123.02,230.65 121.36,229.54 119.69,228.44 118.00,227.37 116.30,226.31 114.60,225.27 112.88,224.25 111.14,223.25 109.40,222.26 107.65,221.30 105.89,220.35 104.11,219.43 102.33,218.52 100.54,217.63 98.74,216.77 96.93,215.92 95.10,215.09 93.28,214.28 91.44,213.50 89.59,212.73 87.74,211.98 85.87,211.25 84.00,210.55 82.12,209.86 80.24,209.19 78.35,208.55 76.45,207.92 74.54,207.32 72.63,206.73 70.71,206.17 68.78,205.63 66.85,205.11 64.91,204.61 62.97,204.13 61.03,203.67 59.07,203.23 57.12,202.82 55.16,202.43 53.19,202.05 51.22,201.70 49.25,201.37 47.27,201.06 45.29,200.78 43.31,200.51 41.33,200.27 39.34,200.05 37.35,199.85 35.36,199.67 33.36,199.51 31.37,199.38 30.38,199.32 2.86,197.75">
        <lane id="-0_0" index="0" disallow="pedestrian tram rail_urban rail rail_electric rail_fast ship" speed="17.88" length="1284.34" width="3.50" shape="-0.01,-1.41 45.50,-1.74 47.51,-1.75 49.52,-1.74 51.53,-1.72 53.55,-1.68 55.56,-1.63 57.57,-1.57 59.58,-1.48 61.59,-1.39 63.60,-1.28 65.61,-1.15 67.62,-1.01 69.63,-0.86 71.63,-0.69 73.64,-0.50 75.64,-0.31 77.64,-0.09 79.64,0.14 81.64,0.38 83.63,0.64 85.63,0.91 87.62,1.19 89.61,1.50 91.60,1.81 93.59,2.14 95.57,2.49 97.55,2.85 99.53,3.22 101.50,3.61 103.47,4.01 105.44,4.43 107.41,4.86 109.37,5.31 111.33,5.77 113.29,6.24 115.24,6.73 117.19,7.23 119.13,7.75 121.07,8.28 123.01,8.83 124.94,9.39 126.87,9.97 128.80,10.55 130.72,11.16 132.64,11.77 134.55,12.40 136.45,13.05 138.36,13.71 140.25,14.38 142.14,15.07 144.03,15.77 145.91,16.48 147.79,17.21 149.66,17.95 149.94,18.07 151.83,18.91 153.71,19.92 155.50,21.06 157.21,22.33 158.82,23.73 160.32,25.24 161.70,26.86 162.96,28.58 164.09,30.38 165.08,32.27 165.93,34.22 166.63,36.23 167.18,38.29 167.58,40.38 167.82,42.50 167.91,44.62 167.84,46.75 167.61,48.87 167.22,50.96 166.68,53.02 165.99,55.04 165.15,56.99 164.17,58.88 163.05,60.69 161.80,62.42 160.42,64.04 158.93,65.56 157.33,66.97 155.64,68.25 154.16,69.22 150.45,71.48 148.82,72.52 147.26,73.63 145.74,74.81 144.28,76.06 142.87,77.37 141.53,78.74 140.25,80.17 139.03,81.66 137.88,83.20 136.81,84.79 135.80,86.43 134.88,88.11 134.02,89.83 133.25,91.59 132.56,93.38 131.95,95.20 131.42,97.05 130.97,98.92 130.61,100.80 130.34,102.70 130.15,104.62 130.04,106.53 130.03,108.45 130.10,110.37 130.25,112.29 130.50,114.19 130.83,116.09 131.24,117.96 131.74,119.82 132.32,121.65 132.98,123.45 133.72,125.22 134.55,126.96 135.45,128.66 136.42,130.31 137.47,131.92 138.59,133.48 139.78,134.99 141.04,136.44 142.36,137.84 143.42,138.87 151.31,146.31 152.75,147.63 154.22,148.91 155.73,150.15 157.27,151.35 158.84,152.51 160.45,153.62 162.08,154.70 163.74,155.72 165.43,156.71 167.14,157.64 168.88,158.53 170.64,159.38 172.42,160.17 174.23,160.92 176.05,161.62 177.89,162.27 179.75,162.87 181.63,163.42 183.51,163.92 185.41,164.37 187.33,164.76 189.25,165.11 191.18,165.40 193.12,165.64 195.06,165.83 197.01,165.97 198.96,166.06 200.91,166.09 202.87,166.07 204.82,166.00 206.77,165.87 208.71,165.69 210.65,165.46 212.58,165.18 214.51,164.85 216.42,164.46 218.33,164.03 220.22,163.54 222.09,163.00 223.96,162.41 225.80,161.78 227.63,161.09 229.44,160.35 231.23,159.57 232.99,158.73 234.74,157.85 236.46,156.93 238.15,155.96 239.82,154.94 241.46,153.88 243.07,152.77 244.65,151.62 246.19,150.43 247.71,149.20 249.20,147.92 250.11,147.10 250.99,146.30 252.42,144.96 253.80,143.58 255.14,142.16 256.43,140.71 257.68,139.21 258.88,137.68 260.03,136.11 261.14,134.51 262.20,132.88 263.21,131.21 264.17,129.52 265.07,127.79 265.93,126.04 266.73,124.27 267.48,122.47 268.17,120.65 268.81,118.81 269.39,116.95 269.91,115.08 270.38,113.19 270.80,111.28 271.15,109.37 271.45,107.44 271.68,105.51 271.86,103.57 271.98,101.63 272.05,99.68 272.05,97.74 271.99,95.79 271.88,93.85 271.71,91.91 271.48,89.97 271.19,88.05 270.84,86.13 270.44,84.23 269.98,82.34 269.46,80.46 268.88,78.60 268.25,76.76 267.57,74.93 266.83,73.13 266.03,71.36 265.18,69.60 264.28,67.88 263.33,66.18 262.33,64.51 261.28,62.87 260.17,61.26 259.03,59.69 257.83,58.16 256.59,56.66 255.30,55.20 253.97,53.77 252.62,52.42 250.84,50.67 249.39,48.97 248.23,46.97 247.44,44.79 247.06,42.51 247.10,40.20 247.55,37.93 248.40,35.78 249.62,33.81 251.18,32.10 253.02,30.69 255.08,29.64 257.29,28.97 259.59,28.71 261.90,28.87 264.12,29.44 265.65,30.09 340.19,68.09 342.01,69.06 343.80,70.11 345.54,71.23 347.24,72.42 348.88,73.67 350.48,74.98 352.02,76.36 353.51,77.80 354.94,79.30 356.31,80.85 357.61,82.45 358.86,84.11 360.03,85.81 361.14,87.56 362.17,89.35 363.14,91.18 364.03,93.05 364.84,94.95 365.58,96.88 366.25,98.84 366.83,100.83 367.34,102.84 367.76,104.86 368.11,106.90 368.37,108.95 368.56,111.02 368.66,113.08 368.68,115.15 368.61,117.22 368.47,119.28 368.24,121.34 367.93,123.39 367.54,125.42 367.07,127.43 366.52,129.43 365.90,131.40 365.19,133.35 364.41,135.26 363.55,137.15 362.62,138.99 361.62,140.80 360.54,142.57 359.40,144.30 358.19,145.97 356.91,147.60 355.57,149.18 354.18,150.69 353.41,151.48 352.03,152.89 350.72,154.33 349.44,155.80 348.20,157.31 347.01,158.86 345.87,160.43 344.77,162.04 343.71,163.69 342.71,165.36 341.75,167.05 340.84,168.78 339.98,170.53 339.17,172.30 338.41,174.10 337.71,175.92 337.05,177.75 336.45,179.61 335.90,181.48 335.41,183.36 334.97,185.26 334.58,187.18 334.25,189.10 333.97,191.03 333.75,192.96 333.59,194.91 333.48,196.85 333.42,198.80 333.42,200.75 333.48,202.70 333.59,204.65 333.76,206.59 333.99,208.53 334.27,210.46 334.60,212.38 334.99,214.29 335.43,216.19 335.93,218.07 336.48,219.94 337.09,221.80 337.74,223.63 338.45,225.45 339.22,227.25 340.03,229.02 340.89,230.77 341.80,232.49 342.76,234.19 343.77,235.86 344.83,237.49 345.93,239.10 347.08,240.68 348.27,242.22 349.51,243.73 350.79,245.20 352.12,246.64 353.03,247.58 353.79,248.36 355.20,249.88 356.52,251.53 357.74,253.26 358.84,255.07 359.82,256.94 360.67,258.88 361.40,260.86 361.99,262.89 362.45,264.96 362.77,267.05 362.95,269.16 362.99,271.27 362.89,273.38 362.66,275.48 362.29,277.57 361.78,279.62 361.13,281.63 360.36,283.60 359.46,285.51 358.43,287.36 357.28,289.14 356.02,290.84 354.65,292.45 353.18,293.97 351.61,295.39 349.95,296.70 348.21,297.90 346.39,298.98 344.51,299.94 342.57,300.77 340.57,301.48 338.54,302.05 336.47,302.49 334.37,302.79 332.30,302.94 331.55,302.97 271.08,304.21 269.06,304.24 267.04,304.24 265.02,304.22 263.00,304.18 260.98,304.11 258.96,304.02 256.94,303.90 254.92,303.76 252.91,303.59 250.90,303.40 248.89,303.18 246.88,302.94 244.88,302.68 242.88,302.39 240.88,302.07 238.89,301.73 236.90,301.37 234.92,300.99 232.94,300.58 230.96,300.14 228.99,299.68 227.03,299.20 225.07,298.70 223.12,298.17 221.18,297.61 219.24,297.04 217.31,296.43 215.39,295.81 213.47,295.16 211.57,294.49 209.67,293.80 207.78,293.08 205.90,292.34 204.03,291.58 202.16,290.80 200.31,289.99 198.47,289.16 196.64,288.30 194.81,287.43 193.00,286.53 191.20,285.61 189.41,284.67 187.63,283.71 185.87,282.73 184.12,281.72 182.37,280.70 180.65,279.65 178.93,278.58 177.23,277.49 175.54,276.38 173.86,275.25 172.20,274.10 170.55,272.93 168.92,271.74 167.30,270.53 165.70,269.30 164.11,268.05 162.53,266.78 160.98,265.49 159.43,264.18 157.91,262.86 156.40,261.52 154.91,260.15 153.43,258.77 151.97,257.38 150.53,255.96 149.43,254.86 148.02,253.45 146.60,252.06 145.17,250.69 143.73,249.34 142.27,248.00 140.80,246.68 139.31,245.37 137.80,244.08 136.29,242.80 134.76,241.55 133.21,240.30 131.66,239.08 130.09,237.87 128.50,236.68 126.91,235.51 125.30,234.36 123.67,233.22 122.04,232.10 120.39,231.00 118.74,229.91 117.07,228.85 115.39,227.80 113.69,226.77 111.99,225.76 110.28,224.76 108.55,223.79 106.82,222.84 105.07,221.90 103.31,220.98 101.55,220.09 99.77,219.21 97.99,218.35 96.19,217.51 94.39,216.69 92.58,215.89 90.76,215.11 88.93,214.35 87.09,213.61 85.24,212.89 83.39,212.19 81.53,211.51 79.66,210.85 77.79,210.21 75.91,209.59 74.02,208.99 72.12,208.41 70.22,207.85 68.32,207.31 66.40,206.80 64.49,206.30 62.56,205.83 60.63,205.38 58.70,204.94 56.76,204.53 54.82,204.14 52.87,203.77 50.92,203.43 48.97,203.10 47.01,202.79 45.05,202.51 43.09,202.25 41.12,202.01 39.15,201.79 37.18,201.59 35.21,201.41 33.24,201.26 31.25,201.12 30.28,201.06 2.76,199.50" type="driving"/>
    </edge>
    <edge id="0" from="0.end" to="0.begin" priority="1" type="driving" shape="2.86,197.75 30.38,199.32 31.37,199.38 33.36,199.51 35.36,199.67 37.35,199.85 39.34,200.05 41.33,200.27 43.31,200.51 45.29,200.78 47.27,201.06 49.25,201.37 51.22,201.70 53.19,202.05 55.16,202.43 57.12,202.82 59.07,203.23 61.03,203.67 62.97,204.13 64.91,204.61 66.85,205.11 68.78,205.63 70.71,206.17 72.63,206.73 74.54,207.32 76.45,207.92 78.35,208.55 80.24,209.19 82.12,209.86 84.00,210.55 85.87,211.25 87.74,211.98 89.59,212.73 91.44,213.50 93.28,214.28 95.10,215.09 96.93,215.92 98.74,216.77 100.54,217.63 102.33,218.52 104.11,219.43 105.89,220.35 107.65,221.30 109.40,222.26 111.14,223.25 112.88,224.25 114.60,225.27 116.30,226.31 118.00,227.37 119.69,228.44 121.36,229.54 123.02,230.65 124.67,231.78 126.31,232.93 127.93,234.09 129.55,235.28 131.14,236.48 132.73,237.70 134.30,238.94 135.86,240.19 137.41,241.46 138.94,242.74 140.45,244.05 141.96,245.37 143.45,246.70 144.92,248.06 146.38,249.42 147.82,250.81 149.25,252.21 150.66,253.62 151.76,254.72 153.19,256.12 154.63,257.50 156.09,258.87 157.57,260.22 159.06,261.54 160.57,262.86 162.10,264.15 163.64,265.42 165.20,266.68 166.77,267.92 168.36,269.13 169.96,270.33 171.58,271.51 173.21,272.67 174.85,273.81 176.51,274.92 178.18,276.02 179.86,277.10 181.56,278.16 183.27,279.19 185.00,280.21 186.73,281.20 188.48,282.18 190.24,283.13 192.01,284.06 193.79,284.97 195.58,285.86 197.38,286.72 199.20,287.57 201.02,288.39 202.85,289.19 204.70,289.96 206.55,290.72 208.41,291.45 210.28,292.16 212.16,292.85 214.04,293.51 215.94,294.15 217.84,294.77 219.75,295.36 221.67,295.93 223.59,296.48 225.52,297.00 227.46,297.50 229.40,297.98 231.35,298.43 233.30,298.86 235.26,299.27 237.22,299.65 239.19,300.01 241.16,300.35 243.14,300.66 245.12,300.94 247.10,301.20 249.09,301.44 251.07,301.66 253.07,301.85 255.06,302.01 257.05,302.15 259.05,302.27 261.05,302.36 263.05,302.43 265.05,302.47 267.05,302.49 269.05,302.49 271.05,302.46 331.50,301.22 332.19,301.20 334.18,301.05 336.16,300.76 338.12,300.35 340.04,299.81 341.93,299.14 343.77,298.35 345.55,297.45 347.27,296.42 348.91,295.29 350.48,294.05 351.97,292.71 353.36,291.27 354.65,289.75 355.84,288.14 356.93,286.46 357.90,284.72 358.75,282.91 359.48,281.05 360.09,279.14 360.57,277.20 360.93,275.23 361.15,273.25 361.24,271.25 361.20,269.25 361.03,267.26 360.73,265.28 360.29,263.33 359.73,261.41 359.05,259.53 358.24,257.70 357.32,255.93 356.28,254.22 355.13,252.58 353.87,251.03 352.51,249.56 351.77,248.80 350.84,247.84 349.49,246.37 348.17,244.86 346.91,243.31 345.68,241.73 344.50,240.11 343.37,238.46 342.29,236.78 341.25,235.07 340.27,233.33 339.33,231.56 338.45,229.77 337.61,227.95 336.83,226.11 336.11,224.25 335.43,222.36 334.81,220.46 334.25,218.55 333.73,216.61 333.28,214.66 332.88,212.70 332.54,210.73 332.25,208.75 332.02,206.77 331.85,204.78 331.73,202.78 331.67,200.78 331.67,198.78 331.73,196.78 331.84,194.78 332.01,192.79 332.24,190.80 332.52,188.82 332.86,186.85 333.26,184.89 333.71,182.95 334.21,181.01 334.78,179.09 335.39,177.19 336.07,175.31 336.79,173.44 337.57,171.60 338.40,169.78 339.28,167.98 340.21,166.22 341.20,164.47 342.23,162.76 343.31,161.08 344.44,159.43 345.61,157.81 346.83,156.22 348.10,154.68 349.41,153.16 350.76,151.69 352.15,150.26 352.91,149.49 354.26,148.02 355.56,146.49 356.79,144.92 357.96,143.30 359.07,141.63 360.11,139.92 361.08,138.18 361.98,136.39 362.80,134.57 363.56,132.72 364.24,130.84 364.85,128.93 365.38,127.00 365.83,125.06 366.21,123.09 366.51,121.11 366.72,119.13 366.87,117.13 366.93,115.13 366.91,113.13 366.81,111.13 366.63,109.14 366.38,107.16 366.05,105.19 365.63,103.23 365.14,101.29 364.58,99.37 363.94,97.48 363.22,95.61 362.43,93.77 361.57,91.97 360.64,90.20 359.64,88.47 358.57,86.78 357.43,85.13 356.23,83.53 354.97,81.98 353.65,80.48 352.27,79.03 350.83,77.64 349.34,76.31 347.80,75.04 346.20,73.83 344.57,72.68 342.88,71.60 341.16,70.59 339.39,69.65 264.90,31.68 263.56,31.10 261.62,30.61 259.63,30.47 257.65,30.69 255.73,31.27 253.95,32.18 252.37,33.39 251.03,34.87 249.97,36.57 249.24,38.42 248.85,40.38 248.82,42.38 249.14,44.35 249.82,46.23 250.82,47.96 252.12,49.48 253.86,51.17 255.23,52.56 256.60,54.02 257.92,55.52 259.19,57.06 260.42,58.64 261.60,60.25 262.73,61.90 263.82,63.58 264.85,65.30 265.82,67.04 266.75,68.82 267.62,70.62 268.43,72.44 269.19,74.29 269.90,76.16 270.55,78.06 271.14,79.97 271.67,81.90 272.14,83.84 272.56,85.79 272.92,87.76 273.21,89.74 273.45,91.73 273.63,93.72 273.74,95.71 273.80,97.71 273.80,99.71 273.73,101.71 273.61,103.71 273.42,105.70 273.18,107.68 272.87,109.66 272.51,111.63 272.09,113.58 271.61,115.52 271.07,117.45 270.47,119.36 269.81,121.25 269.10,123.12 268.34,124.96 267.51,126.79 266.64,128.58 265.70,130.35 264.72,132.09 263.68,133.80 262.60,135.48 261.46,137.13 260.27,138.74 259.04,140.31 257.76,141.85 256.43,143.34 255.06,144.80 253.64,146.21 252.18,147.58 251.29,148.40 250.35,149.24 248.83,150.55 247.28,151.81 245.69,153.03 244.08,154.20 242.43,155.33 240.75,156.42 239.04,157.46 237.31,158.46 235.55,159.41 233.76,160.31 231.95,161.16 230.12,161.96 228.27,162.72 226.40,163.42 224.51,164.08 222.60,164.68 220.68,165.23 218.74,165.73 216.79,166.17 214.83,166.57 212.86,166.91 210.88,167.20 208.89,167.43 206.90,167.62 204.91,167.74 202.91,167.82 200.91,167.84 198.91,167.81 196.91,167.72 194.91,167.58 192.92,167.38 190.94,167.14 188.96,166.84 186.99,166.48 185.04,166.08 183.09,165.62 181.16,165.11 179.24,164.54 177.33,163.93 175.45,163.26 173.58,162.55 171.73,161.78 169.91,160.97 168.10,160.10 166.32,159.19 164.57,158.23 162.84,157.22 161.14,156.17 159.47,155.07 157.83,153.93 156.22,152.75 154.64,151.52 153.09,150.25 151.58,148.93 150.11,147.58 142.21,140.13 141.11,139.07 139.74,137.62 138.43,136.10 137.19,134.53 136.03,132.91 134.93,131.23 133.92,129.51 132.98,127.74 132.13,125.94 131.35,124.09 130.66,122.22 130.06,120.31 129.54,118.38 129.11,116.43 128.77,114.45 128.51,112.47 128.35,110.48 128.28,108.48 128.29,106.48 128.40,104.48 128.60,102.49 128.88,100.51 129.26,98.55 129.72,96.60 130.27,94.68 130.91,92.79 131.63,90.92 132.44,89.09 133.33,87.30 134.29,85.55 135.34,83.84 136.46,82.19 137.65,80.58 138.92,79.03 140.25,77.54 141.65,76.11 143.11,74.75 144.63,73.45 146.21,72.23 147.85,71.07 149.53,69.99 153.23,67.74 154.63,66.82 156.23,65.61 157.73,64.29 159.13,62.87 160.42,61.34 161.59,59.72 162.64,58.02 163.57,56.24 164.35,54.41 165.00,52.51 165.51,50.58 165.87,48.61 166.09,46.63 166.16,44.63 166.08,42.63 165.85,40.64 165.48,38.68 164.96,36.75 164.30,34.86 163.50,33.03 162.57,31.26 161.51,29.56 160.33,27.95 159.03,26.43 157.62,25.01 156.11,23.70 154.51,22.50 152.82,21.43 151.06,20.48 149.23,19.67 149.01,19.58 147.15,18.84 145.29,18.12 143.42,17.41 141.54,16.71 139.66,16.03 137.78,15.36 135.89,14.71 133.99,14.06 132.09,13.44 130.19,12.82 128.28,12.23 126.37,11.64 124.45,11.07 122.53,10.51 120.61,9.97 118.68,9.44 116.74,8.93 114.81,8.43 112.87,7.94 110.92,7.47 108.98,7.01 107.03,6.57 105.07,6.14 103.12,5.72 101.16,5.32 99.19,4.94 97.23,4.57 95.26,4.21 93.29,3.87 91.32,3.54 89.34,3.22 87.37,2.93 85.39,2.64 83.40,2.37 81.42,2.11 79.44,1.87 77.45,1.65 75.46,1.43 73.47,1.24 71.48,1.05 69.49,0.89 67.49,0.73 65.50,0.59 63.50,0.47 61.50,0.36 59.51,0.26 57.51,0.18 55.51,0.12 53.51,0.07 51.51,0.03 49.51,0.01 47.51,0.00 45.51,0.01 0.00,0.34">