<?xml version="1.0" encoding="UTF-8"?>

<!-- generated on 2022-06-03 12:27:52 by Eclipse SUMO GUI Version 1.13.0
-->

<configuration xmlns:xsi="http://www.w3.org/2001/XMLSchema-instance" xsi:noNamespaceSchemaLocation="http://sumo.dlr.de/xsd/sumoConfiguration.xsd">

    <input>
        <net-file value="I99.net.xml"/>
        <route-files value="I99.rou.xml"/>
    </input>
<time>
<begin value = "0"/>
<end value = "500"/>
</time>

</configuration>
