<?xml version="1.0" encoding="UTF-8"?>

<!-- generated on 2022-06-14 14:48:13 by Eclipse SUMO netconvert Version 1.13.0
<configuration xmlns:xsi="http://www.w3.org/2001/XMLSchema-instance" xsi:noNamespaceSchemaLocation="http://sumo.dlr.de/xsd/netconvertConfiguration.xsd">

    <input>
        <osm-files value="map.osm"/>
    </input>

    <output>
        <output-file value="I99.net.xml"/>
    </output>

    <projection>
        <proj.utm value="true"/>
    </projection>

    <report>
        <aggregate-warnings value="5"/>
    </report>

</configuration>
-->

<net version="1.9" junctionCornerDetail="5" limitTurnSpeed="5.50" xmlns:xsi="http://www.w3.org/2001/XMLSchema-instance" xsi:noNamespaceSchemaLocation="http://sumo.dlr.de/xsd/net_file.xsd">

    <location netOffset="-749916.54,-4521893.25" convBoundary="0.00,0.00,5449.51,2872.01" origBoundary="-78.037081,40.810012,-77.971391,40.834243" projParameter="+proj=utm +zone=17 +ellps=WGS84 +datum=WGS84 +units=m +no_defs"/>

    <type id="highway.bridleway" priority="1" numLanes="1" speed="2.78" allow="pedestrian" oneway="1" width="2.00"/>
    <type id="highway.bus_guideway" priority="1" numLanes="1" speed="27.78" allow="bus" oneway="1"/>
    <type id="highway.cycleway" priority="1" numLanes="1" speed="8.33" allow="bicycle" oneway="0" width="1.00"/>
    <type id="highway.footway" priority="1" numLanes="1" speed="2.78" allow="pedestrian" oneway="1" width="2.00"/>
    <type id="highway.ford" priority="1" numLanes="1" speed="2.78" allow="army" oneway="0"/>
    <type id="highway.living_street" priority="2" numLanes="1" speed="2.78" disallow="tram rail_urban rail rail_electric rail_fast ship" oneway="0"/>
    <type id="highway.motorway" priority="14" numLanes="2" speed="39.44" allow="private emergency authority army vip passenger hov taxi bus coach delivery truck trailer motorcycle evehicle custom1 custom2" oneway="1"/>
    <type id="highway.motorway_link" priority="9" numLanes="1" speed="22.22" allow="private emergency authority army vip passenger hov taxi bus coach delivery truck trailer motorcycle evehicle custom1 custom2" oneway="1"/>
    <type id="highway.path" priority="1" numLanes="1" speed="2.78" allow="pedestrian bicycle" oneway="0" width="2.00"/>
    <type id="highway.pedestrian" priority="1" numLanes="1" speed="2.78" allow="pedestrian" oneway="1" width="2.00"/>
    <type id="highway.primary" priority="12" numLanes="2" speed="27.78" disallow="tram rail_urban rail rail_electric rail_fast ship" oneway="0"/>
    <type id="highway.primary_link" priority="7" numLanes="1" speed="22.22" disallow="tram rail_urban rail rail_electric rail_fast ship" oneway="0"/>
    <type id="highway.raceway" priority="15" numLanes="2" speed="83.33" allow="vip" oneway="0"/>
    <type id="highway.residential" priority="3" numLanes="1" speed="13.89" disallow="tram rail_urban rail rail_electric rail_fast ship" oneway="0"/>
    <type id="highway.secondary" priority="11" numLanes="1" speed="27.78" disallow="tram rail_urban rail rail_electric rail_fast ship" oneway="0"/>
    <type id="highway.secondary_link" priority="6" numLanes="1" speed="22.22" disallow="tram rail_urban rail rail_electric rail_fast ship" oneway="0"/>
    <type id="highway.service" priority="1" numLanes="1" speed="5.56" allow="pedestrian delivery bicycle" oneway="0"/>
    <type id="highway.stairs" priority="1" numLanes="1" speed="1.39" allow="pedestrian" oneway="1" width="2.00"/>
    <type id="highway.step" priority="1" numLanes="1" speed="1.39" allow="pedestrian" oneway="1" width="2.00"/>
    <type id="highway.steps" priority="1" numLanes="1" speed="1.39" allow="pedestrian" oneway="1" width="2.00"/>
    <type id="highway.tertiary" priority="10" numLanes="1" speed="22.22" disallow="tram rail_urban rail rail_electric rail_fast ship" oneway="0"/>
    <type id="highway.tertiary_link" priority="5" numLanes="1" speed="22.22" disallow="tram rail_urban rail rail_electric rail_fast ship" oneway="0"/>
    <type id="highway.track" priority="1" numLanes="1" speed="5.56" allow="pedestrian motorcycle moped bicycle" oneway="0"/>
    <type id="highway.trunk" priority="13" numLanes="2" speed="27.78" disallow="pedestrian bicycle tram rail_urban rail rail_electric rail_fast ship" oneway="0"/>
    <type id="highway.trunk_link" priority="8" numLanes="1" speed="22.22" disallow="pedestrian bicycle tram rail_urban rail rail_electric rail_fast ship" oneway="0"/>
    <type id="highway.unclassified" priority="4" numLanes="1" speed="13.89" disallow="tram rail_urban rail rail_electric rail_fast ship" oneway="0"/>
    <type id="highway.unsurfaced" priority="1" numLanes="1" speed="8.33" disallow="tram rail_urban rail rail_electric rail_fast ship" oneway="0"/>
    <type id="railway.highspeed" priority="21" numLanes="1" speed="69.44" allow="rail_fast" oneway="1"/>
    <type id="railway.light_rail" priority="19" numLanes="1" speed="27.78" allow="rail_urban" oneway="1"/>
    <type id="railway.preserved" priority="16" numLanes="1" speed="27.78" allow="rail" oneway="1"/>
    <type id="railway.rail" priority="20" numLanes="1" speed="44.44" allow="rail" oneway="1"/>
    <type id="railway.subway" priority="18" numLanes="1" speed="27.78" allow="rail_urban" oneway="1"/>
    <type id="railway.tram" priority="17" numLanes="1" speed="13.89" allow="tram" oneway="1"/>

    <edge id=":106156142_0" function="internal">
        <lane id=":106156142_0_0" index="0" allow="pedestrian delivery bicycle" speed="3.65" length="4.67" shape="2013.62,2008.76 2013.94,2010.16 2013.68,2011.02 2012.84,2011.32 2011.42,2011.07"/>
    </edge>
    <edge id=":106260059_0" function="internal">
        <lane id=":106260059_0_0" index="0" allow="pedestrian delivery bicycle" speed="3.65" length="4.67" shape="1688.34,1409.40 1688.21,1407.97 1688.57,1407.15 1689.45,1406.96 1690.83,1407.38"/>
    </edge>
    <edge id=":106273767_0" function="internal">
        <lane id=":106273767_0_0" index="0" allow="pedestrian delivery bicycle" speed="3.65" length="4.67" shape="1673.15,1688.14 1672.85,1686.73 1673.12,1685.87 1673.96,1685.58 1675.38,1685.84"/>
    </edge>
    <edge id=":1654424692_0" function="internal">
        <lane id=":1654424692_0_0" index="0" allow="private emergency authority army vip passenger hov taxi bus coach delivery truck trailer motorcycle evehicle custom1 custom2" speed="31.29" length="9.31" shape="1754.03,1146.76 1761.92,1151.60"/>
        <lane id=":1654424692_0_1" index="1" allow="private emergency authority army vip passenger hov taxi bus coach delivery truck trailer motorcycle evehicle custom1 custom2" speed="31.29" length="9.31" shape="1752.32,1149.46 1760.29,1154.36"/>
    </edge>
    <edge id=":1654424692_2" function="internal">
        <lane id=":1654424692_2_0" index="0" allow="delivery" speed="6.09" length="7.73" shape="1752.32,1149.46 1754.54,1151.10 1755.90,1152.63 1756.39,1154.07 1756.02,1155.42"/>
    </edge>
    <edge id=":1654424692_3" function="internal">
        <lane id=":1654424692_3_0" index="0" allow="delivery" speed="6.11" length="7.72" shape="1753.30,1153.73 1754.33,1152.80 1755.85,1152.60 1757.83,1153.12 1760.29,1154.36"/>
    </edge>
    <edge id=":1654424692_4" function="internal">
        <lane id=":1654424692_4_0" index="0" allow="pedestrian delivery bicycle" speed="3.65" length="4.67" shape="1753.30,1153.73 1754.61,1153.14 1755.50,1153.22 1755.97,1153.98 1756.02,1155.42"/>
    </edge>
    <edge id=":1654424695_0" function="internal">
        <lane id=":1654424695_0_0" index="0" allow="private emergency authority army vip passenger hov taxi bus coach delivery truck trailer motorcycle evehicle custom1 custom2" speed="31.29" length="9.50" shape="1746.70,1176.53 1738.56,1171.54"/>
        <lane id=":1654424695_0_1" index="1" allow="private emergency authority army vip passenger hov taxi bus coach delivery truck trailer motorcycle evehicle custom1 custom2" speed="31.29" length="9.50" shape="1748.33,1173.78 1740.28,1168.84"/>
    </edge>
    <edge id=":1654424695_2" function="internal">
        <lane id=":1654424695_2_0" index="0" allow="delivery" speed="6.06" length="7.81" shape="1748.33,1173.78 1746.05,1172.20 1744.67,1170.68 1744.17,1169.23 1744.57,1167.84"/>
    </edge>
    <edge id=":1654424695_3" function="internal">
        <lane id=":1654424695_3_0" index="0" allow="delivery" speed="6.08" length="7.81" shape="1747.29,1169.52 1746.22,1170.49 1744.70,1170.70 1742.71,1170.15 1740.28,1168.84"/>
    </edge>
    <edge id=":1654424695_4" function="internal">
        <lane id=":1654424695_4_0" index="0" allow="pedestrian delivery bicycle" speed="3.65" length="4.67" shape="1747.29,1169.52 1745.97,1170.12 1745.08,1170.04 1744.61,1169.28 1744.57,1167.84"/>
    </edge>
    <edge id=":4018373276_0" function="internal">
        <lane id=":4018373276_0_0" index="0" allow="pedestrian delivery bicycle" speed="3.65" length="4.67" shape="2135.28,1926.13 2135.52,1927.55 2135.22,1928.39 2134.36,1928.65 2132.96,1928.33"/>
    </edge>
    <edge id=":7792039348_0" function="internal">
        <lane id=":7792039348_0_0" index="0" allow="pedestrian motorcycle moped bicycle" speed="3.65" length="4.67" shape="3315.82,537.87 3317.12,537.24 3318.01,537.31 3318.50,538.06 3318.58,539.50"/>
    </edge>
    <edge id=":7792052399_0" function="internal">
        <lane id=":7792052399_0_0" index="0" allow="pedestrian motorcycle moped bicycle" speed="3.65" length="4.67" shape="3088.12,1131.22 3089.56,1131.25 3090.33,1131.70 3090.42,1132.59 3089.84,1133.91"/>
    </edge>
    <edge id=":7910094607_0" function="internal">
        <lane id=":7910094607_0_0" index="0" allow="pedestrian delivery bicycle" speed="3.65" length="4.67" shape="3858.37,2390.99 3858.26,2392.43 3857.76,2393.17 3856.87,2393.22 3855.58,2392.56"/>
    </edge>
    <edge id=":7910094736_0" function="internal">
        <lane id=":7910094736_0_0" index="0" allow="pedestrian delivery bicycle" speed="3.65" length="4.67" shape="421.74,189.54 423.18,189.66 423.91,190.18 423.94,191.07 423.27,192.35"/>
    </edge>

    <edge id="-11847854" from="106260059" to="4018373276" priority="1" type="highway.service" shape="1689.58,1408.39 1728.41,1456.07 1743.77,1473.71 1757.43,1486.63 1773.96,1506.86 1792.79,1526.74 1812.31,1551.08 1835.76,1576.78 1858.27,1599.89 1870.89,1616.21 1884.77,1632.69 1900.90,1649.92 1921.95,1673.87 1940.51,1696.73 1979.45,1738.41 2023.49,1791.27 2034.28,1804.31 2053.02,1824.18 2081.51,1862.72 2096.09,1885.78 2113.57,1905.50 2134.12,1927.23">
        <lane id="-11847854_0" index="0" allow="pedestrian delivery bicycle" speed="5.56" length="683.98" shape="1690.83,1407.38 1729.63,1455.04 1744.92,1472.60 1758.60,1485.53 1775.17,1505.81 1794.00,1525.68 1813.53,1550.04 1836.92,1575.68 1859.48,1598.84 1872.13,1615.21 1885.96,1631.63 1902.08,1648.84 1923.17,1672.83 1941.71,1695.68 1980.65,1737.35 2024.72,1790.24 2035.48,1803.25 2054.25,1823.15 2082.83,1861.81 2097.38,1884.82 2114.75,1904.42 2135.28,1926.13"/>
    </edge>
    <edge id="-11849161" from="106273767" to="106156142" priority="1" type="highway.service" shape="1674.27,1686.99 1716.53,1727.89 1747.13,1761.61 1772.22,1785.92 1788.02,1803.02 1897.46,1911.80 1923.48,1936.03 1959.80,1972.72 1971.96,1985.03 1988.86,1992.17 1999.61,1997.62 2012.52,2009.92">
        <lane id="-11849161_0" index="0" allow="pedestrian delivery bicycle" speed="5.56" length="469.57" shape="1675.38,1685.84 1717.68,1726.77 1748.28,1760.50 1773.37,1784.80 1789.17,1801.91 1898.56,1910.64 1924.59,1934.88 1960.94,1971.60 1972.88,1983.68 1989.53,1990.72 2000.54,1996.29 2013.62,2008.76"/>
    </edge>
    <edge id="-152639090" from="1654424692" to="1654424695" priority="1" type="highway.service">
        <lane id="-152639090_0" index="0" allow="pedestrian delivery bicycle" speed="5.56" length="16.59" shape="1756.02,1155.42 1747.29,1169.52"/>
    </edge>
    <edge id="-834726168" from="7792052399" to="7792039348" priority="1" type="highway.track" shape="3088.98,1132.57 3032.56,1168.71 2956.57,1203.52 2923.71,1203.17 2806.15,1081.39 2669.52,883.11 2654.24,866.94 2626.79,867.41 2599.14,875.47 2543.77,846.59 2516.85,827.65 2500.24,804.32 2508.56,773.18 2528.73,726.43 2554.27,704.43 2603.82,656.91 2629.50,658.50 2683.02,675.86 2726.46,699.72 2807.31,751.96 2821.66,750.82 2837.48,749.96 2863.44,751.35 2882.48,752.25 2897.90,747.11 2915.43,744.02 2939.61,750.53 2962.41,760.43 2987.70,779.87 3021.72,810.01 3044.39,833.56 3061.50,838.46 3082.60,831.94 3158.38,799.72 3174.87,772.21 3187.40,746.93 3196.27,727.10 3211.34,700.33 3277.49,618.78 3285.29,606.41 3296.23,582.22 3308.43,553.55 3317.20,538.68">
        <lane id="-834726168_0" index="0" allow="pedestrian motorcycle moped bicycle" speed="5.56" length="1912.61" shape="3089.84,1133.91 3033.32,1170.11 2956.91,1205.12 2923.03,1204.77 2804.90,1082.40 2668.27,884.12 2653.56,868.55 2627.03,869.00 2598.97,877.18 2542.94,847.95 2515.70,828.80 2498.50,804.64 2507.04,772.66 2527.41,725.46 2553.20,703.24 2603.22,655.27 2629.80,656.92 2683.66,674.39 2727.28,698.35 2807.72,750.33 2821.55,749.23 2837.48,748.36 2863.52,749.75 2882.25,750.64 2897.51,745.55 2915.51,742.38 2940.14,749.02 2963.23,759.04 2988.72,778.64 3022.83,808.86 3045.24,832.14 3061.48,836.79 3082.05,830.44 3157.28,798.45 3173.47,771.44 3185.95,746.25 3194.84,726.38 3210.02,699.42 3276.19,617.85 3283.88,605.65 3294.76,581.58 3307.00,552.82 3315.82,537.87"/>
    </edge>
    <edge id="-847725848" from="7910094736" to="7910094607" priority="1" type="highway.service" shape="422.51,190.94 370.24,219.43 355.96,222.64 343.55,220.21 322.41,206.38 294.77,185.60 283.15,179.83 265.13,183.59 228.86,208.26 205.97,226.31 199.17,237.84 200.44,249.99 294.47,373.88 308.62,394.53 324.77,405.84 421.05,532.83 438.88,554.28 446.43,560.92 452.75,563.49 465.34,560.56 552.49,498.62 565.64,488.98 573.58,473.78 582.64,455.59 592.61,450.22 604.06,450.94 621.98,459.96 658.72,501.21 719.42,552.36 787.25,612.50 895.97,697.92 932.44,714.09 969.51,738.76 984.12,749.79 991.11,760.28 1044.82,805.12 1057.65,816.38 1065.13,821.33 1071.58,821.54 1082.44,822.20 1095.24,825.86 1112.84,835.24 1122.01,841.99 1123.58,847.60 1127.22,852.99 1166.20,873.05 1175.55,874.83 1213.54,880.80 1266.22,912.74 1277.66,921.91 1280.73,926.71 1281.61,935.22 1286.70,941.25 1356.57,986.06 1447.13,1044.46 1459.94,1048.12 1468.68,1050.17 1483.27,1061.78 1496.33,1066.62 1528.56,1069.18 1544.52,1074.99 1640.77,1147.63 1661.14,1161.79 1668.52,1169.35 1668.84,1177.27 1668.83,1186.35 1668.68,1190.72 1672.64,1195.25 1796.98,1270.91 1876.44,1318.69 1980.58,1366.43 2022.36,1373.12 2069.64,1391.13 2108.23,1396.54 2176.89,1424.92 2194.22,1433.72 2206.22,1443.79 2211.84,1451.29 2216.45,1453.79 2228.96,1457.44 2242.03,1461.98 2257.49,1473.63 2270.07,1484.01 2317.46,1496.90 2406.41,1534.91 2540.90,1588.38 2680.18,1647.86 2703.04,1658.02 2719.95,1661.82 2733.49,1661.10 2751.35,1662.89 2843.75,1707.96 2861.69,1717.58 2867.94,1725.84 2870.54,1734.17 2874.64,1738.13 2983.07,1788.97 3091.77,1837.32 3154.83,1865.34 3178.84,1877.26 3201.23,1897.18 3220.97,1910.31 3246.00,1920.17 3258.00,1923.64 3327.20,1974.67 3346.12,1989.10 3349.90,1996.70 3352.05,2001.18 3392.99,2029.59 3494.48,2102.97 3525.83,2130.67 3545.97,2143.23 3580.39,2159.74 3593.83,2171.50 3599.26,2181.27 3598.95,2190.25 3596.52,2199.56 3580.35,2228.31 3577.42,2235.10 3577.21,2241.03 3579.32,2246.85 3583.03,2250.81 3588.14,2253.46 3613.63,2261.24 3684.24,2281.85 3709.62,2287.51 3748.19,2312.02 3816.55,2348.07 3843.72,2368.34 3856.98,2391.78">
        <lane id="-847725848_0" index="0" allow="pedestrian delivery bicycle" speed="5.56" length="4798.69" shape="423.27,192.35 370.81,220.94 355.98,224.28 342.93,221.72 321.49,207.69 293.92,186.97 282.93,181.51 265.77,185.09 229.81,209.55 207.19,227.38 200.81,238.20 201.98,249.38 295.77,372.94 309.77,393.39 325.89,404.67 422.30,531.83 440.03,553.17 447.28,559.54 452.88,561.82 464.67,559.07 551.55,497.33 564.40,487.91 572.16,473.06 581.43,454.43 592.25,448.59 604.49,449.37 622.97,458.67 659.83,500.06 720.47,551.15 788.27,611.27 896.80,696.54 933.21,712.68 970.44,737.45 985.30,748.68 992.31,759.20 1045.86,803.90 1058.63,815.11 1065.63,819.74 1071.66,819.95 1082.71,820.62 1095.84,824.37 1113.70,833.88 1123.40,841.03 1125.06,846.92 1128.32,851.76 1166.73,871.52 1175.82,873.26 1214.10,879.27 1267.14,911.43 1278.86,920.83 1282.28,926.16 1283.15,934.56 1287.77,940.03 1357.43,984.72 1447.80,1042.98 1460.34,1046.57 1469.39,1048.69 1484.07,1060.37 1496.68,1065.04 1528.90,1067.60 1545.29,1073.57 1641.71,1146.34 1662.18,1160.56 1670.09,1168.68 1670.44,1177.24 1670.43,1186.38 1670.30,1190.15 1673.68,1194.01 1797.81,1269.54 1877.19,1317.27 1981.04,1364.88 2022.77,1371.57 2070.04,1389.57 2108.65,1394.98 2177.56,1423.47 2195.11,1432.37 2207.39,1442.68 2212.91,1450.05 2217.06,1452.30 2229.44,1455.91 2242.79,1460.56 2258.49,1472.37 2270.82,1482.55 2317.99,1495.38 2407.02,1533.43 2541.51,1586.90 2680.82,1646.40 2703.55,1656.49 2720.09,1660.21 2733.53,1659.50 2751.79,1661.33 2844.48,1706.54 2862.75,1716.34 2869.38,1725.10 2871.95,1733.30 2875.56,1736.80 2983.73,1787.51 3092.42,1835.86 3155.51,1863.89 3179.75,1875.93 3202.21,1895.91 3221.71,1908.88 3246.52,1918.66 3258.72,1922.18 3328.16,1973.39 3347.39,1988.05 3351.33,1996.00 3353.31,2000.10 3393.91,2028.29 3495.48,2101.72 3526.78,2129.38 3546.74,2141.83 3581.28,2158.40 3595.09,2170.48 3600.88,2180.88 3600.55,2190.48 3598.02,2200.16 3581.78,2229.02 3579.01,2235.45 3578.82,2240.77 3580.71,2245.99 3584.02,2249.51 3588.74,2251.97 3614.09,2259.71 3684.64,2280.30 3710.25,2286.01 3748.99,2310.63 3817.41,2346.71 3844.95,2367.26 3858.37,2390.99"/>
    </edge>
    <edge id="11847854" from="4018373276" to="106260059" priority="1" type="highway.service" shape="2134.12,1927.23 2113.57,1905.50 2096.09,1885.78 2081.51,1862.72 2053.02,1824.18 2034.28,1804.31 2023.49,1791.27 1979.45,1738.41 1940.51,1696.73 1921.95,1673.87 1900.90,1649.92 1884.77,1632.69 1870.89,1616.21 1858.27,1599.89 1835.76,1576.78 1812.31,1551.08 1792.79,1526.74 1773.96,1506.86 1757.43,1486.63 1743.77,1473.71 1728.41,1456.07 1689.58,1408.39">
        <lane id="11847854_0" index="0" allow="pedestrian delivery bicycle" speed="5.56" length="684.22" shape="2132.96,1928.33 2112.39,1906.58 2094.81,1886.75 2080.19,1863.62 2051.79,1825.20 2033.08,1805.37 2022.26,1792.29 1978.25,1739.47 1939.30,1697.78 1920.73,1674.90 1899.71,1650.99 1883.57,1633.75 1869.64,1617.22 1857.06,1600.94 1834.59,1577.87 1811.10,1552.12 1791.59,1527.79 1772.76,1507.92 1756.25,1487.72 1742.61,1474.82 1727.18,1457.10 1688.34,1409.40"/>
    </edge>
    <edge id="11849161" from="106156142" to="106273767" priority="1" type="highway.service" shape="2012.52,2009.92 1999.61,1997.62 1988.86,1992.17 1971.96,1985.03 1959.80,1972.72 1923.48,1936.03 1897.46,1911.80 1788.02,1803.02 1772.22,1785.92 1747.13,1761.61 1716.53,1727.89 1674.27,1686.99">
        <lane id="11849161_0" index="0" allow="pedestrian delivery bicycle" speed="5.56" length="469.61" shape="2011.42,2011.07 1998.68,1998.94 1988.19,1993.62 1971.05,1986.38 1958.66,1973.85 1922.37,1937.18 1896.35,1912.95 1786.87,1804.13 1771.08,1787.04 1745.98,1762.72 1715.38,1729.00 1673.15,1688.14"/>
    </edge>
    <edge id="152638972#0" from="1654425045" to="1654424695" priority="14" type="highway.motorway" spreadType="center" shape="5449.51,2853.28 5420.19,2859.38 5386.62,2864.46 5349.96,2868.32 5320.62,2870.72 5284.48,2871.74 5251.08,2872.01 5228.28,2871.07 5200.67,2869.13 5172.07,2866.43 5145.21,2863.38 5116.84,2858.55 5086.92,2852.83 5055.49,2845.63 5024.53,2837.18 5002.35,2830.57 4979.07,2822.94 4955.11,2814.45 4922.32,2801.23 4893.65,2788.30 4862.37,2772.72 4832.66,2757.05 4792.24,2733.06 4532.62,2576.97 4500.46,2557.81 4475.24,2544.29 4439.82,2524.59 4407.28,2507.97 4374.59,2491.49 4335.56,2472.95 4292.29,2453.12 3972.84,2305.79 3930.32,2284.85 3886.86,2262.32 3845.64,2240.72 3814.97,2223.74 3780.29,2203.07 3749.26,2183.95 3710.58,2159.45 3343.13,1924.28 3271.47,1880.09 3234.64,1859.63 3185.80,1831.53 3139.25,1806.90 3099.27,1786.75 3044.37,1760.56 2814.57,1652.75 2571.57,1538.53 2514.93,1513.13 2460.36,1489.37 2404.77,1466.43 2335.05,1439.45 2106.49,1353.30 2067.65,1337.19 2022.47,1318.59 1974.83,1296.78 1929.89,1275.20 1886.12,1252.95 1840.00,1228.49 1795.18,1203.36 1743.42,1172.73">
        <lane id="152638972#0_0" index="0" allow="private emergency authority army vip passenger hov taxi bus coach delivery truck trailer motorcycle evehicle custom1 custom2" speed="31.29" length="4112.30" shape="5449.84,2854.84 5420.47,2860.95 5386.83,2866.05 5350.11,2869.91 5320.71,2872.32 5284.51,2873.34 5251.05,2873.61 5228.19,2872.67 5200.53,2870.72 5171.90,2868.02 5144.98,2864.96 5116.55,2860.13 5086.59,2854.39 5055.10,2847.18 5024.10,2838.72 5001.88,2832.10 4978.55,2824.46 4954.54,2815.94 4921.69,2802.70 4892.96,2789.75 4861.64,2774.14 4831.87,2758.45 4791.42,2734.43 4531.80,2578.35 4499.67,2559.20 4474.47,2545.70 4439.06,2526.00 4406.56,2509.40 4373.89,2492.93 4334.89,2474.40 4291.62,2454.57 3972.15,2307.23 3929.60,2286.28 3886.12,2263.74 3844.89,2242.13 3814.17,2225.13 3779.46,2204.44 3748.41,2185.31 3709.72,2160.80 3342.28,1925.64 3270.66,1881.48 3233.85,1861.03 3185.02,1832.93 3138.52,1808.32 3098.57,1788.19 3043.69,1762.01 2813.89,1654.20 2570.90,1539.98 2514.28,1514.59 2459.74,1490.85 2404.18,1467.92 2334.48,1440.94 2105.90,1354.79 2067.04,1338.67 2021.83,1320.06 1974.15,1298.23 1929.18,1276.64 1885.38,1254.37 1839.23,1229.89 1794.39,1204.75 1746.70,1176.53"/>
        <lane id="152638972#0_1" index="1" allow="private emergency authority army vip passenger hov taxi bus coach delivery truck trailer motorcycle evehicle custom1 custom2" speed="31.29" length="4112.30" shape="5449.19,2851.71 5419.91,2857.80 5386.42,2862.88 5349.81,2866.73 5320.53,2869.12 5284.45,2870.14 5251.11,2870.41 5228.37,2869.48 5200.80,2867.53 5172.24,2864.84 5145.43,2861.79 5117.12,2856.98 5087.25,2851.26 5055.88,2844.07 5024.97,2835.64 5002.83,2829.05 4979.59,2821.43 4955.67,2812.95 4922.94,2799.76 4894.34,2786.86 4863.10,2771.29 4833.44,2755.66 4793.06,2731.68 4533.45,2575.60 4501.25,2556.42 4476.01,2542.89 4440.57,2523.17 4408.01,2506.54 4375.29,2490.05 4336.24,2471.50 4292.96,2451.67 3973.53,2304.34 3931.04,2283.42 3887.60,2260.91 3846.40,2239.31 3815.77,2222.35 3781.12,2201.70 3750.11,2182.60 3711.44,2158.10 3343.98,1922.93 3272.28,1878.71 3235.42,1858.24 3186.57,1830.13 3139.99,1805.48 3099.97,1785.32 3045.05,1759.12 2815.25,1651.30 2572.24,1537.07 2515.57,1511.66 2460.98,1487.90 2405.36,1464.95 2335.62,1437.96 2107.08,1351.81 2068.26,1335.71 2023.11,1317.12 1975.51,1295.33 1930.60,1273.77 1886.86,1251.53 1840.76,1227.08 1795.98,1201.97 1748.33,1173.78"/>
        <param key="ref" value="I 99;US 220;US 322"/>
    </edge>
    <edge id="152638972#1" from="1654424695" to="355706708" priority="14" type="highway.motorway" spreadType="center" shape="1743.42,1172.73 1673.15,1128.07 1353.06,914.89 1292.97,874.89 1214.39,822.87 1086.81,737.92 1038.37,705.85 978.95,663.18 926.39,623.99 882.22,588.50 833.77,548.04 792.08,510.80 762.99,484.36 702.04,425.55 597.39,321.05 521.14,245.08 470.09,196.99 445.66,176.96 415.47,153.62 389.10,135.67 360.98,118.64 332.96,103.05 305.03,89.17 274.65,75.90 241.82,63.27 207.77,52.59 173.39,43.47 142.63,37.31 112.67,32.60 79.39,28.77 52.49,26.72 21.40,25.63">
        <lane id="152638972#1_0" index="0" allow="private emergency authority army vip passenger hov taxi bus coach delivery truck trailer motorcycle evehicle custom1 custom2" speed="31.29" length="2095.62" shape="1738.56,1171.54 1672.28,1129.41 1352.18,916.23 1292.09,876.22 1213.50,824.21 1085.93,739.25 1037.46,707.16 978.01,664.47 925.41,625.26 881.20,589.74 832.73,549.25 791.00,511.99 761.90,485.52 700.92,426.70 596.26,322.19 520.02,246.23 469.04,198.19 444.66,178.22 414.53,154.92 388.24,137.01 360.18,120.02 332.22,104.47 304.36,90.62 274.04,77.38 241.29,64.78 207.33,54.13 173.03,45.03 142.35,38.88 112.45,34.19 79.24,30.37 52.40,28.32 21.34,27.23"/>
        <lane id="152638972#1_1" index="1" allow="private emergency authority army vip passenger hov taxi bus coach delivery truck trailer motorcycle evehicle custom1 custom2" speed="31.29" length="2095.62" shape="1740.28,1168.84 1674.02,1126.73 1353.95,913.56 1293.86,873.56 1215.27,821.54 1087.70,736.58 1039.28,704.53 979.90,661.89 927.37,622.72 883.23,587.26 834.82,546.83 793.15,509.61 764.09,483.19 703.16,424.41 598.52,319.92 522.25,243.93 471.15,195.79 446.65,175.71 416.41,152.33 389.97,134.32 361.79,117.26 333.71,101.64 305.71,87.72 275.26,74.42 242.34,61.76 208.22,51.06 173.76,41.91 142.91,35.73 112.88,31.02 79.55,27.18 52.58,25.12 21.45,24.03"/>
        <param key="ref" value="I 99;US 220;US 322"/>
    </edge>
    <edge id="152639090" from="1654424695" to="1654424692" priority="1" type="highway.service">
        <lane id="152639090_0" index="0" allow="pedestrian delivery bicycle" speed="5.56" length="16.59" shape="1744.57,1167.84 1753.30,1153.73"/>
    </edge>
    <edge id="74381050#0" from="355709173" to="1654424692" priority="14" type="highway.motorway" spreadType="center" shape="0.00,0.00 39.22,0.23 74.98,2.28 108.12,5.83 136.66,10.06 162.20,14.76 186.30,19.84 211.90,26.82 246.50,37.67 277.65,49.25 303.00,59.78 334.89,74.51 363.22,89.68 389.95,105.37 420.81,125.48 445.06,142.93 469.80,162.69 487.14,177.49 525.19,212.91 568.40,254.97 733.08,420.25 773.74,459.23 809.95,492.64 855.97,533.57 910.40,578.36 958.31,615.78 1005.16,650.75 1049.11,682.00 1105.16,719.70 1227.56,800.67 1678.80,1100.15 1720.37,1127.31 1757.12,1150.61">
        <lane id="74381050#0_0" index="0" allow="private emergency authority army vip passenger hov taxi bus coach delivery truck trailer motorcycle evehicle custom1 custom2" speed="31.29" length="2131.57" shape="0.01,-1.60 39.27,-1.37 75.11,0.69 108.32,4.24 136.93,8.48 162.51,13.19 186.67,18.29 212.35,25.29 247.02,36.15 278.24,47.76 303.64,58.31 335.61,73.07 364.00,88.29 390.79,104.01 421.72,124.16 446.03,141.66 470.82,161.45 488.20,176.30 526.30,211.75 569.53,253.83 734.20,419.11 774.84,458.07 811.03,491.46 857.01,532.36 911.40,577.11 959.28,614.51 1006.11,649.46 1050.02,680.69 1106.05,718.37 1228.44,799.34 1679.68,1098.82 1721.23,1125.97 1754.03,1146.76"/>
        <lane id="74381050#0_1" index="1" allow="private emergency authority army vip passenger hov taxi bus coach delivery truck trailer motorcycle evehicle custom1 custom2" speed="31.29" length="2131.57" shape="-0.01,1.60 39.17,1.83 74.85,3.88 107.91,7.41 136.40,11.64 161.89,16.33 185.92,21.40 211.45,28.36 245.98,39.18 277.07,50.74 302.35,61.24 334.18,75.94 362.44,91.08 389.11,106.73 419.91,126.80 444.09,144.21 468.78,163.92 486.07,178.69 524.09,214.07 567.28,256.10 731.96,421.39 772.65,460.40 808.88,493.83 854.93,534.79 909.40,579.61 957.34,617.05 1004.22,652.05 1048.20,683.32 1104.28,721.03 1226.67,802.00 1677.92,1101.49 1719.50,1128.66 1752.32,1149.46"/>
        <param key="ref" value="I 99;US 220;US 322"/>
    </edge>
    <edge id="74381050#1" from="1654424692" to="1654425030" priority="14" type="highway.motorway" spreadType="center" shape="1757.12,1150.61 1810.69,1182.44 1849.65,1203.94 1907.25,1234.76 1941.85,1252.07 1979.18,1269.84 2023.48,1290.85 2064.07,1308.11 2107.06,1325.87 2164.66,1347.34 2371.50,1425.78 2428.04,1448.42 2486.17,1472.33 2535.66,1494.33 2592.72,1519.80 2728.60,1583.76 3082.18,1749.68 3132.52,1774.28 3200.25,1809.58 3256.12,1840.92 3309.94,1873.62 3368.77,1910.04 3698.37,2121.71 3759.06,2159.86 3810.09,2190.61 3855.15,2216.33 3901.68,2241.25 3955.12,2268.38 4017.48,2297.54 4161.07,2363.89 4348.21,2450.34 4412.53,2481.32 4468.63,2510.78 4522.57,2541.05 4593.62,2582.74 4699.04,2646.08 4791.98,2702.88 4838.56,2730.68 4868.25,2746.91 4907.67,2766.32 4948.99,2784.67 4983.51,2797.52 5020.34,2809.45 5046.35,2816.61 5081.58,2825.50 5119.70,2833.07 5168.25,2840.57">
        <lane id="74381050#1_0" index="0" allow="private emergency authority army vip passenger hov taxi bus coach delivery truck trailer motorcycle evehicle custom1 custom2" speed="31.29" length="3815.38" shape="1761.92,1151.60 1811.49,1181.05 1850.41,1202.53 1907.99,1233.34 1942.55,1250.63 1979.87,1268.39 2024.14,1289.39 2064.69,1306.64 2107.65,1324.38 2165.23,1345.84 2372.08,1424.29 2428.64,1446.94 2486.79,1470.85 2536.32,1492.86 2593.39,1518.34 2729.28,1582.31 3082.87,1748.23 3133.24,1772.85 3201.01,1808.17 3256.92,1839.54 3310.78,1872.26 3369.62,1908.69 3699.23,2120.36 3759.90,2158.49 3810.90,2189.23 3855.93,2214.93 3902.42,2239.83 3955.82,2266.95 4018.16,2296.09 4161.74,2362.43 4348.90,2448.90 4413.25,2479.89 4469.40,2509.38 4523.36,2539.67 4594.44,2581.37 4699.87,2644.71 4792.81,2701.51 4839.35,2729.29 4868.98,2745.49 4908.35,2764.87 4949.60,2783.19 4984.04,2796.01 5020.80,2807.92 5046.76,2815.06 5081.93,2823.93 5119.98,2831.50 5168.50,2838.99"/>
        <lane id="74381050#1_1" index="1" allow="private emergency authority army vip passenger hov taxi bus coach delivery truck trailer motorcycle evehicle custom1 custom2" speed="31.29" length="3815.38" shape="1760.29,1154.36 1809.90,1183.82 1848.88,1205.34 1906.52,1236.18 1941.15,1253.51 1978.50,1271.28 2022.83,1292.31 2063.45,1309.59 2106.48,1327.36 2164.10,1348.84 2370.91,1427.27 2427.44,1449.90 2485.54,1473.80 2535.01,1495.79 2592.05,1521.25 2727.91,1585.21 3081.49,1751.12 3131.80,1775.71 3199.48,1810.99 3255.31,1842.30 3309.10,1874.99 3367.92,1911.40 3697.52,2123.06 3758.22,2161.22 3809.28,2191.99 3854.38,2217.73 3900.94,2242.67 3954.42,2269.82 4016.81,2298.99 4160.40,2365.34 4347.53,2451.79 4411.81,2482.74 4467.87,2512.19 4521.77,2542.44 4592.81,2584.12 4698.21,2647.45 4791.15,2704.25 4837.76,2732.07 4867.51,2748.33 4906.99,2767.77 4948.39,2786.15 4982.99,2799.03 5019.88,2810.99 5045.94,2818.16 5081.23,2827.06 5119.42,2834.65 5168.01,2842.16"/>
        <param key="ref" value="I 99;US 220;US 322"/>
    </edge>