<?xml version="1.0" encoding="UTF-8"?>

<!-- generated on 2022-11-30 12:07:05 by Eclipse SUMO netconvert Version 1.13.0
<configuration xmlns:xsi="http://www.w3.org/2001/XMLSchema-instance" xsi:noNamespaceSchemaLocation="http://sumo.dlr.de/xsd/netconvertConfiguration.xsd">

    <input>
        <opendrive-files value="1_1.xodr"/>
    </input>

    <output>
        <output-file value="1_1.net.xml"/>
    </output>

    <processing>
        <geometry.max-grade.fix value="false"/>
    </processing>

    <tls_building>
        <tls.left-green.time value="0"/>
    </tls_building>

    <junctions>
        <rectangular-lane-cut value="true"/>
    </junctions>

    <report>
        <aggregate-warnings value="5"/>
    </report>

</configuration>
-->

<net version="1.9" junctionCornerDetail="5" rectangularLaneCut="true" limitTurnSpeed="5.50" xmlns:xsi="http://www.w3.org/2001/XMLSchema-instance" xsi:noNamespaceSchemaLocation="http://sumo.dlr.de/xsd/net_file.xsd">

    <location netOffset="1222.32,3290.88" convBoundary="0.00,0.00,4170.40,6938.22" origBoundary="-1222.32,-3290.88,2948.08,3647.33" projParameter="!"/>

    <type id="bidirectional" priority="1" speed="1.39" disallow="pedestrian tram rail_urban rail rail_electric rail_fast ship" width="3.65"/>
    <type id="border" priority="0" speed="1.39" disallow="all" discard="1" width="0.10"/>
    <type id="driving" priority="1" speed="13.89" disallow="pedestrian tram rail_urban rail rail_electric rail_fast ship" width="3.65"/>
    <type id="entry" priority="1" speed="22.22" disallow="pedestrian tram rail_urban rail rail_electric rail_fast ship" width="3.65"/>
    <type id="exit" priority="1" speed="22.22" disallow="pedestrian tram rail_urban rail rail_electric rail_fast ship" width="3.65"/>
    <type id="median" priority="0" speed="1.39" disallow="all" discard="1" width="0.10"/>
    <type id="mwyEntry" priority="1" speed="22.22" allow="private emergency authority army vip passenger hov taxi bus coach delivery truck trailer motorcycle evehicle custom1 custom2" width="3.65"/>
    <type id="mwyExit" priority="1" speed="22.22" allow="private emergency authority army vip passenger hov taxi bus coach delivery truck trailer motorcycle evehicle custom1 custom2" width="3.65"/>
    <type id="none" priority="0" speed="1.39" disallow="all" discard="1" width="1.00"/>
    <type id="offRamp" priority="1" speed="22.22" allow="private emergency authority army vip passenger hov taxi bus coach delivery truck trailer motorcycle evehicle custom1 custom2" width="3.65"/>
    <type id="onRamp" priority="1" speed="22.22" allow="private emergency authority army vip passenger hov taxi bus coach delivery truck trailer motorcycle evehicle custom1 custom2" width="3.65"/>
    <type id="parking" priority="1" speed="1.39" disallow="pedestrian tram rail_urban rail rail_electric rail_fast ship" width="2.50"/>
    <type id="rail" priority="3" speed="33.33" allow="rail_urban rail rail_electric rail_fast" width="3.65"/>
    <type id="restricted" priority="0" speed="13.89" disallow="all" width="3.65"/>
    <type id="roadWorks" priority="0" speed="1.39" allow="authority" width="3.65"/>
    <type id="shoulder" priority="0" speed="1.39" disallow="all" discard="1" width="1.00"/>
    <type id="special1" priority="1" speed="22.22" allow="custom1" discard="1" width="3.65"/>
    <type id="special2" priority="1" speed="22.22" allow="custom2" discard="1" width="3.65"/>
    <type id="special3" priority="1" speed="22.22" allow="custom1 custom2" discard="1" width="3.65"/>
    <type id="stop" priority="1" speed="13.89" disallow="pedestrian tram rail_urban rail rail_electric rail_fast ship" width="3.65"/>
    <type id="tram" priority="2" speed="13.89" allow="tram" width="3.65"/>

    <edge id=":0.begin_0" function="internal">
        <lane id=":0.begin_0_0" index="0" disallow="pedestrian tram rail_urban rail rail_electric rail_fast ship" speed="3.82" length="5.11" width="3.50" shape="533.02,2653.17 532.37,2651.73 532.46,2650.75 533.30,2650.24 534.87,2650.20"/>
    </edge>
    <edge id=":10.begin_0" function="internal">
        <lane id=":10.begin_0_0" index="0" disallow="pedestrian tram rail_urban rail rail_electric rail_fast ship" speed="3.82" length="5.11" width="3.50" shape="1662.20,0.05 1663.03,-1.29 1663.90,-1.75 1664.78,-1.34 1665.70,-0.05"/>
    </edge>
    <edge id=":102_0" function="internal">
        <lane id=":102_0_0" index="0" disallow="pedestrian tram rail_urban rail rail_electric rail_fast ship" speed="17.88" length="24.24" width="3.50" shape="1198.20,3504.22 1174.91,3497.50"/>
    </edge>
    <edge id=":102_1" function="internal">
        <lane id=":102_1_0" index="0" disallow="pedestrian tram rail_urban rail rail_electric rail_fast ship" speed="11.67" length="16.45" width="3.50" shape="1199.17,3500.86 1193.22,3498.54 1188.79,3495.43 1185.99,3491.72"/>
    </edge>
    <edge id=":102_4" function="internal">
        <lane id=":102_4_0" index="0" disallow="pedestrian tram rail_urban rail rail_electric rail_fast ship" speed="11.67" length="5.07" width="3.50" shape="1185.99,3491.72 1185.87,3491.55 1184.46,3486.90"/>
    </edge>
    <edge id=":102_2" function="internal">
        <lane id=":102_2_0" index="0" disallow="pedestrian tram rail_urban rail rail_electric rail_fast ship" speed="8.69" length="22.17" width="3.50" shape="1187.93,3486.44 1187.90,3492.91 1185.72,3496.92 1181.39,3498.45 1174.91,3497.50"/>
    </edge>
    <edge id=":102_3" function="internal">
        <lane id=":102_3_0" index="0" disallow="pedestrian tram rail_urban rail rail_electric rail_fast ship" speed="7.16" length="14.53" width="3.50" shape="1175.88,3494.14 1180.12,3494.76 1182.97,3493.76 1184.41,3491.14 1184.46,3486.90"/>
    </edge>
    <edge id=":111_0" function="internal">
        <lane id=":111_0_0" index="0" disallow="pedestrian tram rail_urban rail rail_electric rail_fast ship" speed="8.34" length="16.30" width="3.50" shape="595.33,3574.20 591.37,3572.21 587.77,3572.09 584.53,3573.81 581.65,3577.40"/>
    </edge>
    <edge id=":111_1" function="internal">
        <lane id=":111_1_0" index="0" disallow="pedestrian tram rail_urban rail rail_electric rail_fast ship" speed="10.29" length="22.22" width="3.50" shape="595.33,3574.20 590.85,3570.05 588.58,3565.45 588.51,3560.38 590.64,3554.87"/>
    </edge>
    <edge id=":111_2" function="internal">
        <lane id=":111_2_0" index="0" disallow="pedestrian tram rail_urban rail rail_electric rail_fast ship" speed="9.05" length="16.97" width="3.50" shape="593.69,3556.59 592.08,3560.78 592.15,3564.64 593.90,3568.16 597.34,3571.34"/>
    </edge>
    <edge id=":111_3" function="internal">
        <lane id=":111_3_0" index="0" disallow="pedestrian tram rail_urban rail rail_electric rail_fast ship" speed="17.88" length="24.04" width="3.50" shape="593.69,3556.59 581.65,3577.40"/>
    </edge>
    <edge id=":111_4" function="internal">
        <lane id=":111_4_0" index="0" disallow="pedestrian tram rail_urban rail rail_electric rail_fast ship" speed="17.88" length="23.95" width="3.50" shape="578.65,3575.60 590.64,3554.87"/>
    </edge>
    <edge id=":111_5" function="internal">
        <lane id=":111_5_0" index="0" disallow="pedestrian tram rail_urban rail rail_electric rail_fast ship" speed="9.66" length="5.65" width="3.50" shape="578.65,3575.60 582.19,3571.20"/>
    </edge>
    <edge id=":111_6" function="internal">
        <lane id=":111_6_0" index="0" disallow="pedestrian tram rail_urban rail rail_electric rail_fast ship" speed="9.66" length="16.61" width="3.50" shape="582.19,3571.20 582.56,3570.74 586.98,3568.41 591.91,3568.61 597.34,3571.34"/>
    </edge>
    <edge id=":118_0" function="internal">
        <lane id=":118_0_0" index="0" disallow="pedestrian tram rail_urban rail rail_electric rail_fast ship" speed="8.70" length="16.66" width="3.50" shape="1168.10,2675.93 1164.10,2673.73 1160.35,2673.32 1156.84,2674.70 1153.56,2677.86"/>
    </edge>
    <edge id=":118_1" function="internal">
        <lane id=":118_1_0" index="0" disallow="pedestrian tram rail_urban rail rail_electric rail_fast ship" speed="9.87" length="22.15" width="3.50" shape="1168.10,2675.93 1163.81,2671.63 1161.94,2666.99 1162.49,2662.02 1165.46,2656.72"/>
    </edge>
    <edge id=":118_2" function="internal">
        <lane id=":118_2_0" index="0" disallow="pedestrian tram rail_urban rail rail_electric rail_fast ship" speed="8.58" length="16.48" width="3.50" shape="1168.24,2658.84 1166.03,2662.79 1165.62,2666.49 1167.01,2669.94 1170.20,2673.14"/>
    </edge>
    <edge id=":118_3" function="internal">
        <lane id=":118_3_0" index="0" disallow="pedestrian tram rail_urban rail rail_electric rail_fast ship" speed="17.88" length="24.02" width="3.50" shape="1168.24,2658.84 1153.56,2677.86"/>
    </edge>
    <edge id=":118_4" function="internal">
        <lane id=":118_4_0" index="0" disallow="pedestrian tram rail_urban rail rail_electric rail_fast ship" speed="17.88" length="23.99" width="3.50" shape="1150.80,2675.71 1165.46,2656.72"/>
    </edge>
    <edge id=":118_5" function="internal">
        <lane id=":118_5_0" index="0" disallow="pedestrian tram rail_urban rail rail_electric rail_fast ship" speed="9.97" length="5.91" width="3.50" shape="1150.80,2675.71 1155.05,2671.61"/>
    </edge>
    <edge id=":118_6" function="internal">
        <lane id=":118_6_0" index="0" disallow="pedestrian tram rail_urban rail rail_electric rail_fast ship" speed="9.97" length="16.33" width="3.50" shape="1155.05,2671.61 1155.17,2671.49 1159.86,2669.65 1164.87,2670.20 1170.20,2673.14"/>
    </edge>
    <edge id=":125_0" function="internal">
        <lane id=":125_0_0" index="0" disallow="pedestrian tram rail_urban rail rail_electric rail_fast ship" speed="17.88" length="31.79" width="3.50" shape="899.68,3134.88 904.73,3132.36 912.47,3129.23 921.16,3125.91 929.07,3122.80"/>
    </edge>
    <edge id=":125_1" function="internal">
        <lane id=":125_1_0" index="0" disallow="pedestrian tram rail_urban rail rail_electric rail_fast ship" speed="8.48" length="23.70" width="3.50" shape="899.68,3134.88 905.79,3132.50 910.96,3133.51 914.45,3137.48 915.54,3143.97"/>
    </edge>
    <edge id=":125_2" function="internal">
        <lane id=":125_2_0" index="0" disallow="pedestrian tram rail_urban rail rail_electric rail_fast ship" speed="7.37" length="17.47" width="3.50" shape="912.05,3143.81 911.62,3138.42 909.74,3135.62 906.41,3135.41 901.62,3137.79"/>
    </edge>
    <edge id=":125_3" function="internal">
        <lane id=":125_3_0" index="0" disallow="pedestrian tram rail_urban rail rail_electric rail_fast ship" speed="13.62" length="2.35" width="3.50" shape="912.05,3143.81 912.50,3141.51"/>
    </edge>
    <edge id=":125_4" function="internal">
        <lane id=":125_4_0" index="0" disallow="pedestrian tram rail_urban rail rail_electric rail_fast ship" speed="13.62" length="26.29" width="3.50" shape="912.50,3141.51 913.35,3137.16 916.62,3131.43 921.86,3126.65 929.07,3122.80"/>
    </edge>
    <edge id=":134_0" function="internal">
        <lane id=":134_0_0" index="0" disallow="pedestrian tram rail_urban rail rail_electric rail_fast ship" speed="8.62" length="16.34" width="3.50" shape="1395.58,4592.07 1392.41,4588.92 1390.99,4585.50 1391.31,4581.81 1393.39,4577.86"/>
    </edge>
    <edge id=":134_1" function="internal">
        <lane id=":134_1_0" index="0" disallow="pedestrian tram rail_urban rail rail_electric rail_fast ship" speed="7.11" length="10.76" width="3.50" shape="1396.23,4579.90 1394.86,4582.51 1394.65,4584.94 1395.58,4587.19 1397.67,4589.26"/>
    </edge>
    <edge id=":139_0" function="internal">
        <lane id=":139_0_0" index="0" disallow="pedestrian tram rail_urban rail rail_electric rail_fast ship" speed="10.28" length="18.83" width="3.50" shape="1055.04,2823.10 1050.31,2822.03 1045.97,2822.54 1042.02,2824.65 1038.45,2828.34"/>
    </edge>
    <edge id=":139_1" function="internal">
        <lane id=":139_1_0" index="0" disallow="pedestrian tram rail_urban rail rail_electric rail_fast ship" speed="8.75" length="20.70" width="3.50" shape="1055.04,2823.10 1049.77,2820.22 1047.19,2816.58 1047.29,2812.19 1050.07,2807.05"/>
    </edge>
    <edge id=":139_2" function="internal">
        <lane id=":139_2_0" index="0" disallow="pedestrian tram rail_urban rail rail_electric rail_fast ship" speed="7.26" length="13.81" width="3.50" shape="1052.88,2809.15 1051.04,2812.56 1050.99,2815.47 1052.74,2817.90 1056.28,2819.83"/>
    </edge>
    <edge id=":139_3" function="internal">
        <lane id=":139_3_0" index="0" disallow="pedestrian tram rail_urban rail rail_electric rail_fast ship" speed="17.88" length="24.00" width="3.50" shape="1052.88,2809.15 1038.45,2828.34"/>
    </edge>
    <edge id=":139_4" function="internal">
        <lane id=":139_4_0" index="0" disallow="pedestrian tram rail_urban rail rail_electric rail_fast ship" speed="17.88" length="24.00" width="3.50" shape="1035.66,2826.23 1050.07,2807.05"/>
    </edge>
    <edge id=":139_5" function="internal">
        <lane id=":139_5_0" index="0" disallow="pedestrian tram rail_urban rail rail_electric rail_fast ship" speed="11.40" length="6.34" width="3.50" shape="1035.66,2826.23 1040.07,2821.68"/>
    </edge>
    <edge id=":139_6" function="internal">
        <lane id=":139_6_0" index="0" disallow="pedestrian tram rail_urban rail rail_electric rail_fast ship" speed="11.40" length="17.04" width="3.50" shape="1040.07,2821.68 1044.98,2819.10 1050.38,2818.48 1056.28,2819.83"/>
    </edge>
    <edge id=":146_0" function="internal">
        <lane id=":146_0_0" index="0" disallow="pedestrian tram rail_urban rail rail_electric rail_fast ship" speed="7.90" length="23.26" width="3.50" shape="1411.89,3385.10 1404.94,3381.90 1401.03,3382.24 1400.16,3386.11 1402.33,3393.51"/>
    </edge>
    <edge id=":146_1" function="internal">
        <lane id=":146_1_0" index="0" disallow="pedestrian tram rail_urban rail rail_electric rail_fast ship" speed="3.82" length="1.58" width="3.50" shape="1411.89,3385.10 1411.20,3383.68"/>
    </edge>
    <edge id=":146_5" function="internal">
        <lane id=":146_5_0" index="0" disallow="pedestrian tram rail_urban rail rail_electric rail_fast ship" speed="3.82" length="3.53" width="3.50" shape="1411.20,3383.68 1411.27,3382.70 1412.09,3382.17 1413.66,3382.07"/>
    </edge>
    <edge id=":146_2" function="internal">
        <lane id=":146_2_0" index="0" disallow="pedestrian tram rail_urban rail rail_electric rail_fast ship" speed="17.88" length="39.58" width="3.50" shape="1379.18,3362.72 1387.23,3368.06 1397.71,3373.82 1407.54,3378.88 1413.66,3382.07"/>
    </edge>
    <edge id=":146_3" function="internal">
        <lane id=":146_3_0" index="0" disallow="pedestrian tram rail_urban rail rail_electric rail_fast ship" speed="17.88" length="29.58" width="3.50" shape="1379.18,3362.72 1385.54,3368.89 1392.26,3377.01 1398.03,3385.39"/>
        <lane id=":146_3_1" index="1" disallow="pedestrian tram rail_urban rail rail_electric rail_fast ship" speed="17.88" length="37.03" width="3.50" shape="1376.97,3365.42 1383.16,3371.38 1389.52,3379.02 1395.14,3387.20 1399.08,3394.82"/>
    </edge>
    <edge id=":146_6" function="internal">
        <lane id=":146_6_0" index="0" disallow="pedestrian tram rail_urban rail rail_electric rail_fast ship" speed="17.88" length="9.18" width="3.50" shape="1398.03,3385.39 1398.22,3385.67 1402.33,3393.51"/>
    </edge>
    <edge id=":15.end_0" function="internal">
        <lane id=":15.end_0_0" index="0" disallow="pedestrian tram rail_urban rail rail_electric rail_fast ship" speed="3.82" length="5.11" width="3.50" shape="4172.10,6937.82 4171.55,6939.29 4170.80,6939.92 4169.85,6939.70 4168.70,6938.62"/>
    </edge>
    <edge id=":153_0" function="internal">
        <lane id=":153_0_0" index="0" disallow="pedestrian tram rail_urban rail rail_electric rail_fast ship" speed="17.88" length="24.00" width="3.50" shape="966.97,3436.89 943.84,3430.49"/>
    </edge>
    <edge id=":153_1" function="internal">
        <lane id=":153_1_0" index="0" disallow="pedestrian tram rail_urban rail rail_electric rail_fast ship" speed="9.70" length="20.31" width="3.50" shape="968.84,3418.18 963.43,3420.77 958.63,3421.32 954.44,3419.82 950.86,3416.27"/>
    </edge>
    <edge id=":153_2" function="internal">
        <lane id=":153_2_0" index="0" disallow="pedestrian tram rail_urban rail rail_electric rail_fast ship" speed="8.39" length="14.92" width="3.50" shape="953.70,3414.23 956.27,3416.71 959.33,3417.71 962.90,3417.21 966.97,3415.23"/>
    </edge>
    <edge id=":153_3" function="internal">
        <lane id=":153_3_0" index="0" disallow="pedestrian tram rail_urban rail rail_electric rail_fast ship" speed="17.88" length="23.99" width="3.50" shape="944.83,3427.13 967.95,3433.54"/>
    </edge>
    <edge id=":158_0" function="internal">
        <lane id=":158_0_0" index="0" disallow="pedestrian tram rail_urban rail rail_electric rail_fast ship" speed="17.88" length="24.33" width="3.50" shape="857.06,3369.95 854.19,3365.63 850.68,3359.62 847.36,3353.50 845.04,3348.83"/>
    </edge>
    <edge id=":158_1" function="internal">
        <lane id=":158_1_0" index="0" disallow="pedestrian tram rail_urban rail rail_electric rail_fast ship" speed="17.88" length="23.52" width="3.50" shape="848.22,3347.38 850.48,3351.93 853.66,3357.82 857.02,3363.59 859.83,3367.81"/>
    </edge>
    <edge id=":161_0" function="internal">
        <lane id=":161_0_0" index="0" disallow="pedestrian tram rail_urban rail rail_electric rail_fast ship" speed="17.88" length="24.24" width="3.50" shape="838.09,3333.61 836.14,3328.80 833.79,3322.28 831.60,3315.71 830.15,3310.72"/>
    </edge>
    <edge id=":161_1" function="internal">
        <lane id=":161_1_0" index="0" disallow="pedestrian tram rail_urban rail rail_electric rail_fast ship" speed="17.88" length="23.58" width="3.50" shape="833.55,3309.90 834.96,3314.78 837.08,3321.14 839.36,3327.44 841.28,3332.16"/>
    </edge>
    <edge id=":164_0" function="internal">
        <lane id=":164_0_0" index="0" disallow="pedestrian tram rail_urban rail rail_electric rail_fast ship" speed="17.88" length="23.99" width="3.50" shape="1051.32,3117.51 1057.40,3120.04 1062.43,3122.25 1067.38,3124.62 1073.23,3127.64"/>
        <lane id=":164_0_1" index="1" disallow="pedestrian tram rail_urban rail rail_electric rail_fast ship" speed="17.88" length="23.99" width="3.50" shape="1049.98,3120.74 1056.01,3123.26 1060.94,3125.41 1065.79,3127.73 1071.60,3130.73"/>
    </edge>
    <edge id=":164_2" function="internal">
        <lane id=":164_2_0" index="0" disallow="pedestrian tram rail_urban rail rail_electric rail_fast ship" speed="9.68" length="19.84" width="3.50" shape="1049.98,3120.74 1055.39,3123.66 1058.82,3127.12 1060.26,3131.12 1059.71,3135.66"/>
    </edge>
    <edge id=":164_3" function="internal">
        <lane id=":164_3_0" index="0" disallow="pedestrian tram rail_urban rail rail_electric rail_fast ship" speed="8.59" length="18.62" width="3.50" shape="1056.37,3134.59 1058.55,3130.53 1061.81,3128.53 1066.16,3128.60 1071.60,3130.73"/>
    </edge>
    <edge id=":169_0" function="internal">
        <lane id=":169_0_0" index="0" disallow="pedestrian tram rail_urban rail rail_electric rail_fast ship" speed="17.88" length="39.31" width="3.50" shape="844.69,3251.82 842.58,3244.50 839.85,3232.58 837.77,3220.65 837.63,3213.30"/>
    </edge>
    <edge id=":169_1" function="internal">
        <lane id=":169_1_0" index="0" disallow="pedestrian tram rail_urban rail rail_electric rail_fast ship" speed="17.88" length="36.90" width="3.50" shape="840.93,3214.48 841.06,3221.44 843.12,3232.53 845.85,3243.60 847.95,3250.54"/>
    </edge>
    <edge id=":169_2" function="internal">
        <lane id=":169_2_0" index="0" disallow="pedestrian tram rail_urban rail rail_electric rail_fast ship" speed="17.88" length="39.82" width="3.50" shape="840.93,3214.48 838.89,3221.82 835.99,3233.76 833.27,3245.74 831.75,3253.22"/>
    </edge>
    <edge id=":169_3" function="internal">
        <lane id=":169_3_0" index="0" disallow="pedestrian tram rail_urban rail rail_electric rail_fast ship" speed="17.88" length="40.49" width="3.50" shape="828.29,3252.68 829.83,3245.11 832.62,3232.90 835.57,3220.74 837.63,3213.30"/>
    </edge>
    <edge id=":17.end_0" function="internal">
        <lane id=":17.end_0_0" index="0" disallow="pedestrian tram rail_urban rail rail_electric rail_fast ship" speed="3.82" length="5.11" width="3.50" shape="1188.14,3398.84 1189.59,3398.21 1190.56,3398.33 1191.05,3399.17 1191.07,3400.75"/>
    </edge>
    <edge id=":22.end_0" function="internal">
        <lane id=":22.end_0_0" index="0" disallow="pedestrian tram rail_urban rail rail_electric rail_fast ship" speed="3.82" length="5.11" width="3.50" shape="358.68,3434.92 358.21,3433.41 358.42,3432.46 359.31,3432.05 360.88,3432.20"/>
    </edge>
    <edge id=":24.end_0" function="internal">
        <lane id=":24.end_0_0" index="0" disallow="pedestrian tram rail_urban rail rail_electric rail_fast ship" speed="3.82" length="5.11" width="3.50" shape="957.68,3247.96 957.40,3249.52 956.77,3250.26 955.79,3250.21 954.47,3249.35"/>
    </edge>
    <edge id=":27.begin_0" function="internal">
        <lane id=":27.begin_0_0" index="0" disallow="pedestrian tram rail_urban rail rail_electric rail_fast ship" speed="3.82" length="5.11" width="3.50" shape="1440.09,3408.53 1439.55,3407.05 1439.71,3406.08 1440.58,3405.63 1442.16,3405.70"/>
    </edge>
    <edge id=":3.end_0" function="internal">
        <lane id=":3.end_0_0" index="0" disallow="pedestrian tram rail_urban rail rail_electric rail_fast ship" speed="3.82" length="5.11" width="3.50" shape="956.64,3292.10 957.32,3290.67 958.12,3290.11 959.05,3290.42 960.10,3291.59"/>
    </edge>
    <edge id=":35.end_0" function="internal">
        <lane id=":35.end_0_0" index="0" disallow="pedestrian tram rail_urban rail rail_electric rail_fast ship" speed="3.82" length="5.11" width="3.50" shape="1.58,4531.91 0.22,4532.71 -0.76,4532.73 -1.36,4531.95 -1.58,4530.39"/>
    </edge>
    <edge id=":39.begin_0" function="internal">
        <lane id=":39.begin_0_0" index="0" disallow="pedestrian tram rail_urban rail rail_electric rail_fast ship" speed="3.82" length="5.11" width="3.50" shape="900.69,3229.85 899.13,3229.58 898.38,3228.96 898.42,3227.98 899.27,3226.65"/>
    </edge>
    <edge id=":40_0" function="internal">
        <lane id=":40_0_0" index="0" disallow="pedestrian tram rail_urban rail rail_electric rail_fast ship" speed="8.26" length="15.88" width="3.50" shape="729.37,3349.36 725.42,3347.37 721.87,3347.17 718.71,3348.76 715.96,3352.14"/>
    </edge>
    <edge id=":40_1" function="internal">
        <lane id=":40_1_0" index="0" disallow="pedestrian tram rail_urban rail rail_electric rail_fast ship" speed="10.23" length="22.52" width="3.50" shape="729.37,3349.36 724.92,3345.22 722.76,3340.57 722.87,3335.41 725.27,3329.74"/>
    </edge>
    <edge id=":40_2" function="internal">
        <lane id=":40_2_0" index="0" disallow="pedestrian tram rail_urban rail rail_electric rail_fast ship" speed="9.00" length="17.16" width="3.50" shape="728.28,3331.54 726.44,3335.86 726.35,3339.79 727.99,3343.34 731.37,3346.49"/>
    </edge>
    <edge id=":40_3" function="internal">
        <lane id=":40_3_0" index="0" disallow="pedestrian tram rail_urban rail rail_electric rail_fast ship" speed="17.88" length="24.00" width="3.50" shape="728.28,3331.54 715.96,3352.14"/>
    </edge>
    <edge id=":40_4" function="internal">
        <lane id=":40_4_0" index="0" disallow="pedestrian tram rail_urban rail rail_electric rail_fast ship" speed="17.88" length="24.00" width="3.50" shape="712.95,3350.34 725.27,3329.74"/>
    </edge>
    <edge id=":40_5" function="internal">
        <lane id=":40_5_0" index="0" disallow="pedestrian tram rail_urban rail rail_electric rail_fast ship" speed="9.58" length="5.85" width="3.50" shape="712.95,3350.34 716.65,3345.80"/>
    </edge>
    <edge id=":40_6" function="internal">
        <lane id=":40_6_0" index="0" disallow="pedestrian tram rail_urban rail rail_electric rail_fast ship" speed="9.58" length="15.96" width="3.50" shape="716.65,3345.80 716.74,3345.68 721.08,3343.49 725.95,3343.76 731.37,3346.49"/>
    </edge>
    <edge id=":47_0" function="internal">
        <lane id=":47_0_0" index="0" disallow="pedestrian tram rail_urban rail rail_electric rail_fast ship" speed="8.74" length="16.69" width="3.50" shape="890.73,3331.30 887.60,3328.00 884.15,3326.46 880.36,3326.67 876.24,3328.65"/>
    </edge>
    <edge id=":47_1" function="internal">
        <lane id=":47_1_0" index="0" disallow="pedestrian tram rail_urban rail rail_electric rail_fast ship" speed="17.88" length="23.99" width="3.50" shape="890.73,3331.30 876.82,3311.76"/>
    </edge>
    <edge id=":47_2" function="internal">
        <lane id=":47_2_0" index="0" disallow="pedestrian tram rail_urban rail rail_electric rail_fast ship" speed="13.83" length="83.34" width="3.50" shape="931.71,3321.10 901.11,3305.00 884.55,3301.00 882.05,3309.09 893.59,3329.28"/>
    </edge>
    <edge id=":47_3" function="internal">
        <lane id=":47_3_0" index="0" disallow="pedestrian tram rail_urban rail rail_electric rail_fast ship" speed="17.88" length="59.08" width="3.50" shape="931.71,3321.10 919.45,3316.39 906.12,3316.09 891.72,3320.17 876.24,3328.65"/>
    </edge>
    <edge id=":47_4" function="internal">
        <lane id=":47_4_0" index="0" disallow="pedestrian tram rail_urban rail rail_electric rail_fast ship" speed="17.88" length="55.79" width="3.50" shape="931.71,3321.10 921.73,3319.14 903.74,3317.00 886.02,3314.58 876.82,3311.76"/>
    </edge>
    <edge id=":47_5" function="internal">
        <lane id=":47_5_0" index="0" disallow="pedestrian tram rail_urban rail rail_electric rail_fast ship" speed="11.36" length="33.24" width="3.50" shape="931.71,3321.10 921.55,3314.72 913.92,3308.71 909.95,3303.26 910.75,3298.54"/>
    </edge>
    <edge id=":47_6" function="internal">
        <lane id=":47_6_0" index="0" disallow="pedestrian tram rail_urban rail rail_electric rail_fast ship" speed="6.55" length="16.54" width="3.50" shape="931.71,3321.10 928.85,3317.80 928.72,3313.90 930.95,3310.69 935.14,3309.47"/>
    </edge>
    <edge id=":47_7" function="internal">
        <lane id=":47_7_0" index="0" disallow="pedestrian tram rail_urban rail rail_electric rail_fast ship" speed="3.82" length="5.11" width="3.50" shape="931.71,3321.10 931.02,3319.68 931.09,3318.70 931.91,3318.17 933.49,3318.08"/>
    </edge>
    <edge id=":47_8" function="internal">
        <lane id=":47_8_0" index="0" disallow="pedestrian tram rail_urban rail rail_electric rail_fast ship" speed="5.74" length="12.21" width="3.50" shape="935.00,3312.96 930.78,3313.11 929.12,3314.01 930.03,3315.67 933.49,3318.08"/>
    </edge>
    <edge id=":47_9" function="internal">
        <lane id=":47_9_0" index="0" disallow="pedestrian tram rail_urban rail rail_electric rail_fast ship" speed="12.53" length="54.39" width="3.50" shape="935.00,3312.96 911.94,3313.12 897.35,3315.90 891.24,3321.28 893.59,3329.28"/>
    </edge>
    <edge id=":47_10" function="internal">
        <lane id=":47_10_0" index="0" disallow="pedestrian tram rail_urban rail rail_electric rail_fast ship" speed="17.88" length="60.89" width="3.50" shape="935.00,3312.96 924.29,3314.94 905.31,3319.69 886.47,3325.00 876.24,3328.65"/>
    </edge>
    <edge id=":47_11" function="internal">
        <lane id=":47_11_0" index="0" disallow="pedestrian tram rail_urban rail rail_electric rail_fast ship" speed="17.88" length="58.23" width="3.50" shape="935.00,3312.96 909.20,3311.96 890.90,3311.42 880.11,3311.36 876.82,3311.76"/>
    </edge>
    <edge id=":47_12" function="internal">
        <lane id=":47_12_0" index="0" disallow="pedestrian tram rail_urban rail rail_electric rail_fast ship" speed="10.21" length="35.42" width="3.50" shape="935.00,3312.96 923.34,3311.95 913.63,3309.55 908.55,3305.26 910.75,3298.54"/>
    </edge>
    <edge id=":47_13" function="internal">
        <lane id=":47_13_0" index="0" disallow="pedestrian tram rail_urban rail rail_electric rail_fast ship" speed="3.82" length="5.11" width="3.50" shape="935.00,3312.96 933.72,3312.04 933.32,3311.14 933.79,3310.29 935.14,3309.47"/>
    </edge>
    <edge id=":47_14" function="internal">
        <lane id=":47_14_0" index="0" disallow="pedestrian tram rail_urban rail rail_electric rail_fast ship" speed="9.03" length="27.32" width="3.50" shape="913.44,3300.78 912.45,3304.14 915.74,3306.71 923.31,3308.48 935.14,3309.47"/>
    </edge>
    <edge id=":47_15" function="internal">
        <lane id=":47_15_0" index="0" disallow="pedestrian tram rail_urban rail rail_electric rail_fast ship" speed="10.37" length="27.46" width="3.50" shape="913.44,3300.78 913.54,3303.25 916.92,3306.95 923.56,3311.90 933.49,3318.08"/>
    </edge>
    <edge id=":47_16" function="internal">
        <lane id=":47_16_0" index="0" disallow="pedestrian tram rail_urban rail rail_electric rail_fast ship" speed="13.73" length="35.01" width="3.50" shape="913.44,3300.78 904.09,3312.31 897.66,3320.91 894.16,3326.56 893.59,3329.28"/>
    </edge>
    <edge id=":47_17" function="internal">
        <lane id=":47_17_0" index="0" disallow="pedestrian tram rail_urban rail rail_electric rail_fast ship" speed="17.88" length="46.50" width="3.50" shape="913.44,3300.78 906.86,3306.37 895.20,3315.12 883.36,3323.67 876.24,3328.65"/>
    </edge>
    <edge id=":47_18" function="internal">
        <lane id=":47_18_0" index="0" disallow="pedestrian tram rail_urban rail rail_electric rail_fast ship" speed="12.87" length="45.73" width="3.50" shape="913.44,3300.78 903.48,3311.46 894.02,3317.94 885.11,3318.58 876.82,3311.76"/>
    </edge>
    <edge id=":47_19" function="internal">
        <lane id=":47_19_0" index="0" disallow="pedestrian tram rail_urban rail rail_electric rail_fast ship" speed="3.82" length="5.11" width="3.50" shape="913.44,3300.78 911.93,3301.23 910.97,3301.01 910.58,3300.11 910.75,3298.54"/>
    </edge>
    <edge id=":47_20" function="internal">