<?xml version="1.0" encoding="UTF-8"?>

<!-- generated on 2022-07-12 12:05:19 by Eclipse SUMO duarouter Version 1.13.0
<configuration xmlns:xsi="http://www.w3.org/2001/XMLSchema-instance" xsi:noNamespaceSchemaLocation="http://sumo.dlr.de/xsd/duarouterConfiguration.xsd">

    <input>
        <net-file value="C:\Users\ccctt\Sumo\2022-07-12-12-04-59\osm.net.xml"/>
        <route-files value="C:\Users\ccctt\Sumo\2022-07-12-12-04-59\osm.passenger.trips.xml"/>
    </input>

    <output>
        <output-file value="C:\Users\ccctt\Sumo\2022-07-12-12-04-59\osm.passenger.trips.xml.tmp"/>
        <write-trips value="true"/>
    </output>

    <time>
        <begin value="0"/>
        <end value="3600"/>
    </time>

    <report>
        <no-warnings value="true"/>
        <ignore-errors value="true"/>
        <no-step-log value="true"/>
    </report>

</configuration>
-->

<routes xmlns:xsi="http://www.w3.org/2001/XMLSchema-instance" xsi:noNamespaceSchemaLocation="http://sumo.dlr.de/xsd/routes_file.xsd">
    <vType id="veh_passenger" vClass="passenger"/>
    <trip id="veh0" type="veh_passenger" depart="0.00" departLane="best" from="11847923#1" to="-11835043"/>
    <trip id="veh1" type="veh_passenger" depart="0.36" departLane="best" from="-261178214#5" to="-262162189#3"/>
    <trip id="veh2" type="veh_passenger" depart="0.71" departLane="best" from="261738207" to="261168264#0"/>
    <trip id="veh3" type="veh_passenger" depart="1.07" departLane="best" departSpeed="max" from="367148775#0" to="-11842222#2"/>
    <trip id="veh4" type="veh_passenger" depart="1.42" departLane="best" from="-469560992#1" to="-11835623#1"/>
    <trip id="veh5" type="veh_passenger" depart="1.78" departLane="best" departSpeed="max" from="-11849021#1" to="11841408"/>
    <trip id="veh6" type="veh_passenger" depart="2.14" departLane="best" departSpeed="max" from="-11833518#3" to="-261258160#1"/>
    <trip id="veh7" type="veh_passenger" depart="2.49" departLane="best" departSpeed="max" from="11848926#0" to="11843840#0"/>
    <trip id="veh8" type="veh_passenger" depart="2.85" departLane="best" departSpeed="max" from="-11849101#1" to="11846982#0"/>
    <trip id="veh9" type="veh_passenger" depart="3.21" departLane="best" departSpeed="max" from="314883690#0" to="-11832771#3"/>
    <trip id="veh10" type="veh_passenger" depart="3.56" departLane="best" from="293934904" to="261266437#0"/>
    <trip id="veh11" type="veh_passenger" depart="3.92" departLane="best" from="-293934772" to="-11849802#1"/>
    <trip id="veh12" type="veh_passenger" depart="4.27" departLane="best" from="55943269#8" to="-475389884#0"/>
    <trip id="veh13" type="veh_passenger" depart="4.63" departLane="best" departSpeed="max" from="-11838960#2" to="-11843467#1"/>
    <trip id="veh14" type="veh_passenger" depart="4.99" departLane="best" from="339776507#1" to="11848281#4"/>
    <trip id="veh15" type="veh_passenger" depart="5.34" departLane="best" departSpeed="max" from="301709621#0" to="262146198"/>
    <trip id="veh16" type="veh_passenger" depart="5.70" departLane="best" from="11836546#0" to="782564861"/>
    <trip id="veh17" type="veh_passenger" depart="6.05" departLane="best" from="-35024245#1" to="11844735#0"/>
    <trip id="veh18" type="veh_passenger" depart="6.41" departLane="best" from="339271716#0" to="11849101#0"/>
    <trip id="veh19" type="veh_passenger" depart="6.77" departLane="best" from="35011091" to="11846573#0"/>
    <trip id="veh20" type="veh_passenger" depart="7.12" departLane="best" from="261172665#0" to="-11837206#1"/>
    <trip id="veh21" type="veh_passenger" depart="7.48" departLane="best" from="-11849489#1" to="-35042317#2"/>
    <trip id="veh22" type="veh_passenger" depart="7.83" departLane="best" departSpeed="max" from="-11838047" to="-263651467"/>
    <trip id="veh23" type="veh_passenger" depart="8.19" departLane="best" from="-11840735#2" to="-339766069#1"/>
    <trip id="veh24" type="veh_passenger" depart="8.55" departLane="best" from="11847508#9" to="-852777611#1"/>
    <trip id="veh25" type="veh_passenger" depart="8.90" departLane="best" from="-339776534#3" to="-261738207"/>
    <trip id="veh26" type="veh_passenger" depart="9.26" departLane="best" from="-261168271" to="474268447#0"/>
    <trip id="veh27" type="veh_passenger" depart="9.62" departLane="best" from="11848878#6" to="11848769#3"/>
    <trip id="veh28" type="veh_passenger" depart="9.97" departLane="best" departSpeed="max" from="-11845498" to="262144402#0"/>
    <trip id="veh29" type="veh_passenger" depart="10.33" departLane="best" departSpeed="max" from="-11845255" to="105829761#0"/>
    <trip id="veh30" type="veh_passenger" depart="10.68" departLane="best" from="846973532" to="12227976#0"/>
    <trip id="veh31" type="veh_passenger" depart="11.04" departLane="best" from="11840805#5" to="261177633#15"/>
    <trip id="veh32" type="veh_passenger" depart="11.40" departLane="best" from="339766081#0" to="269999709#0"/>
    <trip id="veh33" type="veh_passenger" depart="11.75" departLane="best" departSpeed="max" from="-11849707" to="-11835796#0"/>
    <trip id="veh34" type="veh_passenger" depart="12.11" departLane="best" from="-262166712#2" to="-339271726"/>
    <trip id="veh35" type="veh_passenger" depart="12.46" departLane="best" from="35047792#0" to="-39015665#4"/>
    <trip id="veh36" type="veh_passenger" depart="12.82" departLane="best" from="11849182#1" to="11832773#4"/>
    <trip id="veh37" type="veh_passenger" depart="13.18" departLane="best" departSpeed="max" from="38857358#0" to="11837192"/>
    <trip id="veh38" type="veh_passenger" depart="13.53" departLane="best" from="-261168091#2" to="-275523174#1"/>
    <trip id="veh39" type="veh_passenger" depart="13.89" departLane="best" departSpeed="max" from="11840968#0" to="-338586026#4"/>
    <trip id="veh40" type="veh_passenger" depart="14.25" departLane="best" from="11842234#0" to="37856936#0"/>
    <trip id="veh41" type="veh_passenger" depart="14.60" departLane="best" departSpeed="max" from="-369316783#5" to="-262150115#0"/>
    <trip id="veh42" type="veh_passenger" depart="14.96" departLane="best" from="901994549" to="11841567"/>
    <trip id="veh43" type="veh_passenger" depart="15.31" departLane="best" departSpeed="max" from="-11838788#1" to="-11837456#1"/>
    <trip id="veh44" type="veh_passenger" depart="15.67" departLane="best" departSpeed="max" from="-11840956#1" to="11849640#0"/>
    <trip id="veh45" type="veh_passenger" depart="16.03" departLane="best" from="269999702#0" to="11834207#1"/>
    <trip id="veh46" type="veh_passenger" depart="16.38" departLane="best" from="-11836367#1" to="1059701815"/>
    <trip id="veh47" type="veh_passenger" depart="16.74" departLane="best" departSpeed="max" from="891582927#0" to="11842236#0"/>
    <trip id="veh48" type="veh_passenger" depart="17.09" departLane="best" departSpeed="max" from="767656778" to="35044826#1-AddedOnRampEdge"/>
    <trip id="veh49" type="veh_passenger" depart="17.45" departLane="best" departSpeed="max" from="-11829659#3" to="261768224#2"/>
    <trip id="veh50" type="veh_passenger" depart="17.81" departLane="best" from="238990227#0" to="11843121"/>
    <trip id="veh51" type="veh_passenger" depart="18.16" departLane="best" from="-261168271" to="12233870#3"/>
    <trip id="veh52" type="veh_passenger" depart="18.52" departLane="best" from="-11841200#4" to="11835541#0"/>
    <trip id="veh53" type="veh_passenger" depart="18.87" departLane="best" departSpeed="max" from="-63954950#1" to="562585248#0"/>
    <trip id="veh54" type="veh_passenger" depart="19.23" departLane="best" from="35046960#2-AddedOnRampEdge" to="-338586026#4"/>
    <trip id="veh55" type="veh_passenger" depart="19.59" departLane="best" departSpeed="max" from="38654994#0" to="35061976"/>
    <trip id="veh56" type="veh_passenger" depart="19.94" departLane="best" departSpeed="max" from="-261768240#2" to="12214794"/>
    <trip id="veh57" type="veh_passenger" depart="20.30" departLane="best" from="11845494#0" to="-11849407#4"/>
    <trip id="veh58" type="veh_passenger" depart="20.66" departLane="best" from="262862943#0" to="11843467#0"/>
    <trip id="veh59" type="veh_passenger" depart="21.01" departLane="best" departSpeed="max" from="264490119#0" to="11842347#0"/>
    <trip id="veh60" type="veh_passenger" depart="21.37" departLane="best" from="-1055237159#3" to="-469560995#1"/>
    <trip id="veh61" type="veh_passenger" depart="21.72" departLane="best" departSpeed="max" from="-11832921" to="469679276"/>
    <trip id="veh62" type="veh_passenger" depart="22.08" departLane="best" from="35050418#0-AddedOffRampEdge" to="339776523"/>
    <trip id="veh63" type="veh_passenger" depart="22.44" departLane="best" from="-262150119#0" to="-11840277#1"/>
    <trip id="veh64" type="veh_passenger" depart="22.79" departLane="best" from="35050418#0" to="52613911#0"/>
    <trip id="veh65" type="veh_passenger" depart="23.15" departLane="best" departSpeed="max" from="-11838629" to="11839886#5"/>
    <trip id="veh66" type="veh_passenger" depart="23.50" departLane="best" departSpeed="max" from="-11837068#3" to="264490119#3"/>
    <trip id="veh67" type="veh_passenger" depart="23.86" departLane="best" from="263555060#8" to="-11846970#0"/>
    <trip id="veh68" type="veh_passenger" depart="24.22" departLane="best" departSpeed="max" from="-902852725#4" to="11844563#1"/>
    <trip id="veh69" type="veh_passenger" depart="24.57" departLane="best" from="-261168091#4" to="35109780#0"/>
    <trip id="veh70" type="veh_passenger" depart="24.93" departLane="best" from="-469560999#2" to="-261755566#1"/>
    <trip id="veh71" type="veh_passenger" depart="25.29" departLane="best" from="11836984" to="262146199#0"/>
    <trip id="veh72" type="veh_passenger" depart="25.64" departLane="best" from="-11847570#2" to="-38857358#0"/>
    <trip id="veh73" type="veh_passenger" depart="26.00" departLane="best" from="885386364-AddedOffRampEdge" to="180125382#0"/>
    <trip id="veh74" type="veh_passenger" depart="26.35" departLane="best" departSpeed="max" from="-479612029" to="11841884#0"/>
    <trip id="veh75" type="veh_passenger" depart="26.71" departLane="best" departSpeed="max" from="-11841561" to="-262166262#6"/>
    <trip id="veh76" type="veh_passenger" depart="27.07" departLane="best" from="-276902671#2" to="11846824#2"/>
    <trip id="veh77" type="veh_passenger" depart="27.42" departLane="best" departSpeed="max" from="-11849726#1" to="-262150116#3"/>
    <trip id="veh78" type="veh_passenger" depart="27.78" departLane="best" departSpeed="max" from="-11837192" to="11849876#0"/>
    <trip id="veh79" type="veh_passenger" depart="28.13" departLane="best" departSpeed="max" from="-11849707" to="38667577#0"/>
    <trip id="veh80" type="veh_passenger" depart="28.49" departLane="best" from="35011074#0-AddedOffRampEdge" to="-11841288"/>
    <trip id="veh81" type="veh_passenger" depart="28.85" departLane="best" from="-12212017#1" to="261167016"/>
    <trip id="veh82" type="veh_passenger" depart="29.20" departLane="best" departSpeed="max" from="-11848885" to="-11847364#4"/>
    <trip id="veh83" type="veh_passenger" depart="29.56" departLane="best" from="469679272#0" to="11846034"/>
    <trip id="veh84" type="veh_passenger" depart="29.92" departLane="best" from="-864653250" to="276902672#0"/>
    <trip id="veh85" type="veh_passenger" depart="30.27" departLane="best" from="305625228#1" to="-261178214#0"/>
    <trip id="veh86" type="veh_passenger" depart="30.63" departLane="best" from="-11839458#13" to="11835436"/>
    <trip id="veh87" type="veh_passenger" depart="30.98" departLane="best" from="-469561001#1" to="11838047"/>
    <trip id="veh88" type="veh_passenger" depart="31.34" departLane="best" from="261475686#0" to="261168081#1"/>
    <trip id="veh89" type="veh_passenger" depart="31.70" departLane="best" departSpeed="max" from="834021479" to="-11843624#3"/>
    <trip id="veh90" type="veh_passenger" depart="32.05" departLane="best" departSpeed="max" from="-37856936#4" to="-487530809#3"/>
    <trip id="veh91" type="veh_passenger" depart="32.41" departLane="best" from="35011074#2-AddedOnRampEdge" to="-276902341#1"/>
    <trip id="veh92" type="veh_passenger" depart="32.76" departLane="best" from="-11846806#1" to="11836287#0"/>
    <trip id="veh93" type="veh_passenger" depart="33.12" departLane="best" from="-469560991" to="-339766094#0"/>
    <trip id="veh94" type="veh_passenger" depart="33.48" departLane="best" departSpeed="max" from="-205572823#2" to="468157916"/>
    <trip id="veh95" type="veh_passenger" depart="33.83" departLane="best" from="-507804536#8" to="35044827#1"/>
    <trip id="veh96" type="veh_passenger" depart="34.19" departLane="best" departSpeed="max" from="11839613" to="-11838372#1"/>
    <trip id="veh97" type="veh_passenger" depart="34.54" departLane="best" from="932959497#0" to="342677909-AddedOnRampEdge"/>
    <trip id="veh98" type="veh_passenger" depart="34.90" departLane="best" from="339776512#0" to="-12242335#1"/>
    <trip id="veh99" type="veh_passenger" depart="35.26" departLane="best" from="1059701818#0" to="-261768224#1"/>
    <trip id="veh100" type="veh_passenger" depart="35.61" departLane="best" from="-37106632#5" to="-11840735#2"/>
    <trip id="veh101" type="veh_passenger" depart="35.97" departLane="best" from="-35042317#2" to="846973532"/>
    <trip id="veh102" type="veh_passenger" depart="36.33" departLane="best" from="-261168091#5" to="276902671#13"/>
    <trip id="veh103" type="veh_passenger" depart="36.68" departLane="best" departSpeed="max" from="-63954950#1" to="11834372#1"/>
    <trip id="veh104" type="veh_passenger" depart="37.04" departLane="best" from="55943269#8" to="903619798#0"/>
    <trip id="veh105" type="veh_passenger" depart="37.39" departLane="best" from="11840774#10" to="261751489#13"/>
    <trip id="veh106" type="veh_passenger" depart="37.75" departLane="best" from="-11843864#6" to="-362645957"/>
    <trip id="veh107" type="veh_passenger" depart="38.11" departLane="best" from="68282109#0" to="11846606#0"/>
    <trip id="veh108" type="veh_passenger" depart="38.46" departLane="best" departSpeed="max" from="11837774#0" to="263555060#8"/>
    <trip id="veh109" type="veh_passenger" depart="38.82" departLane="best" from="-11835952" to="11846708#5"/>
    <trip id="veh110" type="veh_passenger" depart="39.17" departLane="best" from="11833559#0" to="35018003#3"/>
    <trip id="veh111" type="veh_passenger" depart="39.53" departLane="best" from="-11844393#2" to="63954950#0"/>
    <trip id="veh112" type="veh_passenger" depart="39.89" departLane="best" from="-11838106#0" to="-261170457#0"/>
    <trip id="veh113" type="veh_passenger" depart="40.24" departLane="best" from="11843376#5" to="261168091#3"/>
    <trip id="veh114" type="veh_passenger" depart="40.60" departLane="best" departSpeed="max" from="-12171769#3" to="-11846502#1"/>
    <trip id="veh115" type="veh_passenger" depart="40.96" departLane="best" from="362645956" to="-275523172#1"/>
    <trip id="veh116" type="veh_passenger" depart="41.31" departLane="best" from="11843293#0" to="11849111#0"/>
    <trip id="veh117" type="veh_passenger" depart="41.67" departLane="best" from="-443067464" to="11846708#10"/>
    <trip id="veh118" type="veh_passenger" depart="42.02" departLane="best" from="11835623#0" to="474236454"/>
    <trip id="veh119" type="veh_passenger" depart="42.38" departLane="best" from="-11848182#5" to="261738207"/>
    <trip id="veh120" type="veh_passenger" depart="42.74" departLane="best" from="-12212750#2" to="11832773#4"/>
    <trip id="veh121" type="veh_passenger" depart="43.09" departLane="best" from="12245899" to="-368355988#2"/>
    <trip id="veh122" type="veh_passenger" depart="43.45" departLane="best" from="-262166712#3" to="263651478"/>
    <trip id="veh123" type="veh_passenger" depart="43.80" departLane="best" departSpeed="max" from="-11837206#5" to="11837192"/>
    <trip id="veh124" type="veh_passenger" depart="44.16" departLane="best" from="-11837442#3" to="-261755573#1"/>
    <trip id="veh125" type="veh_passenger" depart="44.52" departLane="best" from="-261168091#5" to="469794439"/>
    <trip id="veh126" type="veh_passenger" depart="44.87" departLane="best" from="35051689#0" to="362645947#0"/>
    <trip id="veh127" type="veh_passenger" depart="45.23" departLane="best" from="-339776532#1" to="-11849871#2"/>
    <trip id="veh128" type="veh_passenger" depart="45.58" departLane="best" from="339271729" to="261435801"/>
    <trip id="veh129" type="veh_passenger" depart="45.94" departLane="best" departSpeed="max" from="11845792" to="852777611#0"/>
    <trip id="veh130" type="veh_passenger" depart="46.30" departLane="best" departSpeed="max" from="11849182#0" to="-11832827#0"/>
    <trip id="veh131" type="veh_passenger" depart="46.65" departLane="best" departSpeed="max" from="335045297#0" to="-368207956#3"/>
    <trip id="veh132" type="veh_passenger" depart="47.01" departLane="best" from="11849877" to="475112419#0"/>
    <trip id="veh133" type="veh_passenger" depart="47.37" departLane="best" from="-11842000#1" to="-11846205#1"/>
    <trip id="veh134" type="veh_passenger" depart="47.72" departLane="best" from="-11840899#4" to="11845045#0"/>
    <trip id="veh135" type="veh_passenger" depart="48.08" departLane="best" from="-261177633#7" to="11848669#3"/>
    <trip id="veh136" type="veh_passenger" depart="48.43" departLane="best" from="261178547#1" to="-261586980#2"/>
    <trip id="veh137" type="veh_passenger" depart="48.79" departLane="best" from="11847384#5" to="-338853969#2"/>
    <trip id="veh138" type="veh_passenger" depart="49.15" departLane="best" departSpeed="max" from="11827694#0" to="38667577#0"/>
    <trip id="veh139" type="veh_passenger" depart="49.50" departLane="best" from="339766177#0" to="-11842591#7"/>
    <trip id="veh140" type="veh_passenger" depart="49.86" departLane="best" from="-469561001#1" to="-339766038#1"/>
    <trip id="veh141" type="veh_passenger" depart="50.21" departLane="best" from="-1057047198#2" to="268408823#3"/>
    <trip id="veh142" type="veh_passenger" depart="50.57" departLane="best" from="11847860#10" to="-335048920#1"/>
    <trip id="veh143" type="veh_passenger" depart="50.93" departLane="best" from="261768231#0" to="11844691"/>
    <trip id="veh144" type="veh_passenger" depart="51.28" departLane="best" from="-469679276" to="-11832893#1"/>
    <trip id="veh145" type="veh_passenger" depart="51.64" departLane="best" departSpeed="max" from="-11837617" to="368207954#0"/>
    <trip id="veh146" type="veh_passenger" depart="52.00" departLane="best" departSpeed="max" from="371927111#0" to="11843864#3"/>
    <trip id="veh147" type="veh_passenger" depart="52.35" departLane="best" from="339271731#0" to="11846653#0"/>
    <trip id="veh148" type="veh_passenger" depart="52.71" departLane="best" from="-11843464#4" to="-11846824#5"/>
    <trip id="veh149" type="veh_passenger" depart="53.06" departLane="best" from="-262150121#1" to="37856938#0"/>
    <trip id="veh150" type="veh_passenger" depart="53.42" departLane="best" from="275528461" to="35044826#1-AddedOnRampEdge"/>
    <trip id="veh151" type="veh_passenger" depart="53.78" departLane="best" from="369164912#0" to="-261745702#1"/>
    <trip id="veh152" type="veh_passenger" depart="54.13" departLane="best" from="-205572823#1" to="-11844414#1"/>
    <trip id="veh153" type="veh_passenger" depart="54.49" departLane="best" from="264868430" to="368354749#0"/>
    <trip id="veh155" type="veh_passenger" depart="55.20" departLane="best" from="-11843864#4" to="469679280#3"/>
    <trip id="veh156" type="veh_passenger" depart="55.56" departLane="best" from="35017998#3" to="788644741#0"/>
    <trip id="veh157" type="veh_passenger" depart="55.91" departLane="best" from="32603861#1" to="362645964#0"/>
    <trip id="veh158" type="veh_passenger" depart="56.27" departLane="best" departSpeed="max" from="-11833404#1" to="262150126"/>
    <trip id="veh159" type="veh_passenger" depart="56.62" departLane="best" from="-269109445#0" to="469679283#0"/>
    <trip id="veh160" type="veh_passenger" depart="56.98" departLane="best" from="276922324#0" to="35048204#1"/>
    <trip id="veh161" type="veh_passenger" depart="57.34" departLane="best" from="32603861#1" to="-339271718#1"/>
    <trip id="veh162" type="veh_passenger" depart="57.69" departLane="best" from="268408823#3" to="-11845292#1"/>
    <trip id="veh163" type="veh_passenger" depart="58.05" departLane="best" from="35043835#0" to="35043416#5"/>
    <trip id="veh164" type="veh_passenger" depart="58.41" departLane="best" from="-11849241#1" to="339271734#0"/>
    <trip id="veh165" type="veh_passenger" depart="58.76" departLane="best" departSpeed="max" from="-749081994" to="-37415504"/>
    <trip id="veh166" type="veh_passenger" depart="59.12" departLane="best" from="275523172#0" to="-262166705#0"/>
    <trip id="veh167" type="veh_passenger" depart="59.47" departLane="best" from="-11833051#1" to="-261178214#5"/>
    <trip id="veh168" type="veh_passenger" depart="59.83" departLane="best" departSpeed="max" from="-265636636#1" to="35048525#1"/>
    <trip id="veh169" type="veh_passenger" depart="60.19" departLane="best" from="68282101#2" to="-339766118#1"/>
    <trip id="veh170" type="veh_passenger" depart="60.54" departLane="best" from="11848251#3" to="11832917#0"/>
    <trip id="veh171" type="veh_passenger" depart="60.90" departLane="best" from="833627610" to="11843118#0"/>
    <trip id="veh172" type="veh_passenger" depart="61.25" departLane="best" from="469794430#0" to="-11846205#1"/>
    <trip id="veh173" type="veh_passenger" depart="61.61" departLane="best" from="745351834#0" to="-261018225"/>
    <trip id="veh174" type="veh_passenger" depart="61.97" departLane="best" from="591666824#0" to="-339271715"/>
    <trip id="veh175" type="veh_passenger" depart="62.32" departLane="best" departSpeed="max" from="-11840928#1" to="11835541#0"/>
    <trip id="veh176" type="veh_passenger" depart="62.68" departLane="best" from="261467271#2" to="-38898224"/>
    <trip id="veh177" type="veh_passenger" depart="63.04" departLane="best" departSpeed="max" from="11845132" to="11841679"/>
    <trip id="veh178" type="veh_passenger" depart="63.39" departLane="best" from="-362619274#6" to="11846535#1"/>
    <trip id="veh179" type="veh_passenger" depart="63.75" departLane="best" from="-260610369#1" to="261476054#0"/>
    <trip id="veh180" type="veh_passenger" depart="64.10" departLane="best" from="-1056753247#0" to="469560997"/>
    <trip id="veh181" type="veh_passenger" depart="64.46" departLane="best" from="11836974#11" to="261755567#1"/>
    <trip id="veh182" type="veh_passenger" depart="64.82" departLane="best" from="261768235#0" to="261167028#0"/>
    <trip id="veh183" type="veh_passenger" depart="65.17" departLane="best" from="-339766069#1" to="-11841247#0"/>
    <trip id="veh184" type="veh_passenger" depart="65.53" departLane="best" from="12121014#0" to="-469679283#1"/>
    <trip id="veh185" type="veh_passenger" depart="65.88" departLane="best" from="-262166701#2" to="35012199#1"/>
    <trip id="veh186" type="veh_passenger" depart="66.24" departLane="best" departSpeed="max" from="261234318#0" to="-368357339#2"/>
    <trip id="veh187" type="veh_passenger" depart="66.60" departLane="best" from="-262150124#2" to="11833513#4"/>
    <trip id="veh188" type="veh_passenger" depart="66.95" departLane="best" departSpeed="max" from="-37856936#4" to="-362645941#1"/>
    <trip id="veh189" type="veh_passenger" depart="67.31" departLane="best" departSpeed="max" from="-11841771#4" to="11834169#0"/>
    <trip id="veh190" type="veh_passenger" depart="67.67" departLane="best" from="469794436#3" to="261168271"/>
    <trip id="veh191" type="veh_passenger" depart="68.02" departLane="best" departSpeed="max" from="371927111#0" to="11848990#0"/>
    <trip id="veh192" type="veh_passenger" depart="68.38" departLane="best" departSpeed="max" from="-261805413#1" to="11844241#0"/>
    <trip id="veh193" type="veh_passenger" depart="68.73" departLane="best" from="-1055237159#2" to="-35018300"/>
    <trip id="veh194" type="veh_passenger" depart="69.09" departLane="best" from="-469679282#9" to="11846606#1"/>
    <trip id="veh195" type="veh_passenger" depart="69.45" departLane="best" departSpeed="max" from="11849182#0" to="11838000#3"/>
    <trip id="veh196" type="veh_passenger" depart="69.80" departLane="best" departSpeed="max" from="-507804536#10" to="-261768224#1"/>
    <trip id="veh197" type="veh_passenger" depart="70.16" departLane="best" from="-866283527" to="37856946#10"/>
    <trip id="veh198" type="veh_passenger" depart="70.51" departLane="best" from="275523174#0" to="-152472819#4"/>
    <trip id="veh199" type="veh_passenger" depart="70.87" departLane="best" departSpeed="max" from="-11838515#1" to="11841841#0"/>
    <trip id="veh200" type="veh_passenger" depart="71.23" departLane="best" departSpeed="max" from="11847364#0" to="-474424351#0"/>
    <trip id="veh201" type="veh_passenger" depart="71.58" departLane="best" from="335045302#0" to="263651471"/>
    <trip id="veh203" type="veh_passenger" depart="72.29" departLane="best" from="-11847384#18" to="-11835005#4"/>
    <trip id="veh204" type="veh_passenger" depart="72.65" departLane="best" from="-12246484#3" to="11838745#0"/>
    <trip id="veh205" type="veh_passenger" depart="73.01" departLane="best" from="339776521#0" to="-11841348#21"/>
    <trip id="veh206" type="veh_passenger" depart="73.36" departLane="best" departSpeed="max" from="-421307769#2" to="11849756#0"/>
    <trip id="veh207" type="veh_passenger" depart="73.72" departLane="best" from="-11847046#3" to="261234318#1"/>
    <trip id="veh208" type="veh_passenger" depart="74.08" departLane="best" from="11831795#0" to="-269109445#0"/>
    <trip id="veh209" type="veh_passenger" depart="74.43" departLane="best" from="11849304#0" to="-11827694#0"/>
    <trip id="veh210" type="veh_passenger" depart="74.79" departLane="best" from="262150116#3" to="268408822"/>
    <trip id="veh211" type="veh_passenger" depart="75.14" departLane="best" from="-11840899#1" to="11834469"/>
    <trip id="veh212" type="veh_passenger" depart="75.50" departLane="best" from="-11845992#9" to="593942393"/>
    <trip id="veh213" type="veh_passenger" depart="75.86" departLane="best" from="11835012#0" to="-11838322#2"/>
    <trip id="veh214" type="veh_passenger" depart="76.21" departLane="best" from="-204099546#2" to="35012199#1-AddedOnRampEdge"/>
    <trip id="veh216" type="veh_passenger" depart="76.92" departLane="best" from="12212017#2" to="853756278"/>
    <trip id="veh218" type="veh_passenger" depart="77.64" departLane="best" departSpeed="max" from="367148775#0" to="11848898#0"/>
    <trip id="veh219" type="veh_passenger" depart="77.99" departLane="best" from="261231115#2" to="11841408"/>
    <trip id="veh220" type="veh_passenger" depart="78.35" departLane="best" from="339271720#0" to="11844241#0"/>
    <trip id="veh222" type="veh_passenger" depart="79.06" departLane="best" from="-901994549" to="-335032965#1"/>
    <trip id="veh223" type="veh_passenger" depart="79.42" departLane="best" from="-152472818#2" to="12212017#3"/>
    <trip id="veh224" type="veh_passenger" depart="79.77" departLane="best" from="263555060#8" to="11841970#0"/>
    <trip id="veh225" type="veh_passenger" depart="80.13" departLane="best" from="11846793#0" to="-339765959"/>
    <trip id="veh226" type="veh_passenger" depart="80.49" departLane="best" from="-11838000#2" to="-35017998#2"/>
    <trip id="veh227" type="veh_passenger" depart="80.84" departLane="best" from="-261177633#25" to="-435565595#2"/>
    <trip id="veh228" type="veh_passenger" depart="81.20" departLane="best" from="11837206#0" to="-11847923#0"/>
    <trip id="veh229" type="veh_passenger" depart="81.55" departLane="best" from="-11849795#1" to="261179648#0"/>
    <trip id="veh230" type="veh_passenger" depart="81.91" departLane="best" from="261177170#6" to="-11840899#7"/>
    <trip id="veh231" type="veh_passenger" depart="82.27" departLane="best" departSpeed="max" from="-38654992#1" to="11843624#0"/>
    <trip id="veh232" type="veh_passenger" depart="82.62" departLane="best" departSpeed="max" from="-421307778#5" to="-261721773#3"/>
    <trip id="veh233" type="veh_passenger" depart="82.98" departLane="best" departSpeed="max" from="-444144611#2" to="38667575#0"/>
    <trip id="veh234" type="veh_passenger" depart="83.33" departLane="best" from="11842222#3" to="261229353#0"/>
    <trip id="veh235" type="veh_passenger" depart="83.69" departLane="best" from="34990152#0" to="268400328#0"/>
    <trip id="veh236" type="veh_passenger" depart="84.05" departLane="best" from="-35047792#0" to="-11832725#1"/>
    <trip id="veh237" type="veh_passenger" depart="84.40" departLane="best" from="-339271712#1" to="263651494#0"/>
    <trip id="veh238" type="veh_passenger" depart="84.76" departLane="best" departSpeed="max" from="342678768#0" to="56036241#0"/>
    <trip id="veh239" type="veh_passenger" depart="85.12" departLane="best" departSpeed="max" from="-43678332" to="263555060#2"/>
    <trip id="veh240" type="veh_passenger" depart="85.47" departLane="best" from="11838745#0" to="11848251#0"/>
    <trip id="veh241" type="veh_passenger" depart="85.83" departLane="best" departSpeed="max" from="-11849101#1" to="-262150115#0"/>
    <trip id="veh242" type="veh_passenger" depart="86.18" departLane="best" from="-474702038#4" to="-11835590#3"/>
    <trip id="veh243" type="veh_passenger" depart="86.54" departLane="best" from="-276902336#1" to="261172649#0"/>
    <trip id="veh244" type="veh_passenger" depart="86.90" departLane="best" from="-37856945#14" to="-12233870#3"/>
    <trip id="veh245" type="veh_passenger" depart="87.25" departLane="best" from="-841506814#3" to="-11846865"/>
    <trip id="veh246" type="veh_passenger" depart="87.61" departLane="best" from="11846590#5" to="-11835417#1"/>
    <trip id="veh247" type="veh_passenger" depart="87.96" departLane="best" departSpeed="max" from="-368355192#1" to="11845498"/>
    <trip id="veh248" type="veh_passenger" depart="88.32" departLane="best" departSpeed="max" from="-11833572" to="12242335#0"/>